65                                     
                                       
C    3.281054    2.152636    -1.169852 
C    1.92093     2.287281    -1.41054  
C    1.062228    1.25174     -1.03075  
C    1.513351    0.081476    -0.389456 
C    2.8739      -0.021747   -0.12334  
C    3.733498    1.001439    -0.52679  
O    0.23328     -0.64915    1.948834  
N    -1.055612   0.39708     -0.570088 
C    -0.379598   1.353079    -1.109204 
Co   0.070954    -1.100663   0.092534  
C    -0.374881   -2.402772   -1.515515 
C    0.956482    -2.66064    -1.087865 
C    0.903635    -3.028172   0.288133  
C    -0.481406   -3.128541   0.662686  
C    -1.269222   -2.755387   -0.440634 
C    -0.788241   -1.943491   -2.881868 
C    2.171874    -2.570381   -1.958611 
C    2.042521    -3.347617   1.209546  
C    -0.941618   -3.501109   2.036755  
C    -2.764585   -2.809      -0.541663 
H    2.135397    -1.69853    -2.617037 
H    3.089917    -2.498771   -1.37233  
H    2.238566    -3.46794    -2.583903 
H    3.009084    -3.201343   0.720951  
H    2.007249    -2.70801    2.098463  
H    1.995568    -4.390683   1.541464  
H    -0.484745   -2.836389   2.776863  
H    -2.027382   -3.42578    2.131001  
H    -0.651238   -4.530696   2.272995  
H    0.165676    3.12609     1.487913  
C    0.204109    0.521441    2.481908  
O    -0.31629    1.521505    1.974151  
H    -1.733889   -1.393777   -2.840484 
H    -0.036039   -1.279582   -3.318979 
H    -0.924369   -2.791186   -3.562806 
H    -3.244241   -2.687335   0.432128  
H    1.518581    3.205797    -1.831139 
H    -3.161955   -2.031216   -1.199339 
H    -3.069311   -3.7794     -0.95048  
H    3.28785     -0.878125   0.402835  
C    0.886294    0.610057    3.833574  
H    1.967715    0.658216    3.668822  
H    0.567707    1.506636    4.365334  
H    0.679764    -0.283028   4.426501  
H    3.982267    2.932859    -1.441922 
Cl   5.441657    0.841504    -0.197065 
O    0.402849    3.807924    0.815805  
C    -0.661489   4.1491      0.085501  
O    -0.524518   4.692885    -0.987151 
C    -2.010917   3.81628     0.685885  
H    -2.031255   2.781915    1.041746  
H    -2.188578   4.464948    1.549872  
H    -2.79009    3.982731    -0.057823 
H    -0.874187   2.232683    -1.528684 
C    -2.464393   0.477389    -0.473704 
C    -3.052721   0.144624    0.749223  
C    -3.255141   0.867707    -1.555723 
C    -4.433127   0.219829    0.887431  
H    -2.409183   -0.145096   1.575706  
C    -4.638859   0.930363    -1.408576 
H    -2.786378   1.099983    -2.508116 
C    -5.229753   0.608527    -0.189797 
H    -4.890837   -0.026071   1.840543  
H    -5.254303   1.226408    -2.252127 
H    -6.30813    0.657488    -0.079293 
