65                                     
                                       
C    3.249295    1.418502    -1.238544 
C    1.948286    1.8141      -1.526095 
C    0.883023    1.040096    -1.054412 
C    1.078333    -0.142796   -0.311249 
C    2.383301    -0.502005   0.002735  
C    3.442908    0.275693    -0.465598 
O    -0.50619    -0.696482   1.976754  
N    -1.3624     0.667806    -0.571423 
C    -0.509327   1.442284    -1.15048  
Co   -0.576958   -1.031482   0.095249  
C    -1.151627   -2.165116   -1.599564 
C    0.068932    -2.698771   -1.102515 
C    -0.151699   -3.093705   0.248503  
C    -1.554036   -2.93421    0.528751  
C    -2.172421   -2.373359   -0.602238 
C    -1.364594   -1.577684   -2.962771 
C    1.335057    -2.825586   -1.892683 
C    0.836091    -3.664354   1.221167  
C    -2.177337   -3.259864   1.849329  
C    -3.637977   -2.122946   -0.798614 
H    1.510081    -1.948549   -2.521913 
H    2.209385    -2.947236   -1.250081 
H    1.268615    -3.704367   -2.544201 
H    1.852738    -3.643634   0.820542  
H    0.825373    -3.093569   2.156087  
H    0.595979    -4.70669    1.458798  
H    -1.675988   -2.701533   2.646568  
H    -3.239436   -3.004568   1.86538   
H    -2.082273   -4.329574   2.065375  
H    -0.681162   3.016209    1.331431  
C    -0.290256   0.419025    2.581594  
O    -0.180988   1.51997     2.038511  
H    -2.204166   -0.875365   -2.958793 
H    -0.476916   -1.031932   -3.298707 
H    -1.581599   -2.35492    -3.704022 
H    -4.153306   -1.951812   0.149019  
H    1.761649    2.736862    -2.069008 
H    -3.826662   -1.251983   -1.431888 
H    -4.096388   -2.993259   -1.282465 
H    2.599359    -1.380503   0.605124  
C    -0.156631   0.286181    4.088598  
H    -0.142429   1.270065    4.556668  
H    -0.978042   -0.31373    4.487669  
H    0.775414    -0.238972   4.317692  
H    4.101137    1.992484    -1.584161 
Br   5.214105    -0.250404   -0.041989 
O    -0.817309   3.642545    0.585011  
C    0.360364    4.083752    0.122223  
O    0.428356    4.587399    -0.975263 
C    1.543929    3.893062    1.042783  
H    1.3612      4.399696    1.995246  
H    1.674443    2.827296    1.255609  
H    2.436563    4.297837    0.567692  
H    -0.806552   2.394371    -1.5935   
C    -2.727578   1.026214    -0.479537 
C    -3.413837   1.614886    -1.543408 
C    -3.393529   0.736437    0.713612  
C    -4.764125   1.922062    -1.405232 
H    -2.895982   1.809594    -2.478262 
C    -4.739439   1.055802    0.84471   
H    -2.841923   0.26046     1.52035   
C    -5.429234   1.645811    -0.213388 
H    -5.297759   2.373675    -2.23541  
H    -5.253947   0.839254    1.775757  
H    -6.482615   1.885375    -0.110902 
