75                                     
                                       
C    2.860453    1.599307    -1.406252 
C    1.535271    1.927013    -1.655808 
C    0.527466    1.103747    -1.141164 
C    0.815952    -0.061057   -0.400528 
C    2.149889    -0.338506   -0.13297  
C    3.182622    0.478065    -0.626094 
O    -0.576068   -0.69566    1.962309  
N    -1.671789   0.628429    -0.551152 
C    -0.884877   1.434495    -1.179899 
Co   -0.771485   -1.025123   0.089033  
C    -1.402784   -2.191144   -1.567328 
C    -0.121115   -2.651654   -1.161122 
C    -0.221586   -3.062686   0.199645  
C    -1.606235   -2.983928   0.580006  
C    -2.335745   -2.455851   -0.49964  
C    -1.742983   -1.618001   -2.910565 
C    1.092721    -2.695843   -2.037535 
C    0.864317    -3.577212   1.096144  
C    -2.113281   -3.347874   1.939803  
C    -3.823444   -2.283974   -0.583318 
H    1.183523    -1.795658   -2.651702 
H    2.010627    -2.785341   -1.452655 
H    1.029815    -3.561968   -2.70616  
H    1.846663    -3.49942    0.622689  
H    0.89094     -3.006234   2.030755  
H    0.700667    -4.631111   1.347648  
H    -1.578554   -2.774432   2.703853  
H    -3.181238   -3.14019    2.038542  
H    -1.955582   -4.414169   2.135827  
H    -1.078848   2.987481    1.286544  
C    -0.425604   0.42866     2.568677  
O    -0.562607   1.543338    2.061429  
H    -2.628252   -0.977356   -2.849858 
H    -0.918803   -1.010379   -3.298654 
H    -1.950665   -2.407878   -3.64113  
H    -4.270269   -2.119074   0.399756  
H    1.280457    2.829416    -2.205051 
H    -4.105462   -1.435712   -1.212704 
H    -4.274894   -3.184946   -1.014787 
H    2.414299    -1.188804   0.494064  
C    -0.03126    0.295093    4.029303  
H    -0.136803   1.251957    4.540041  
H    -0.639403   -0.469056   4.518517  
H    1.012579    -0.029335   4.08274   
H    3.657472    2.212796    -1.81549  
O    -1.231621   3.623282    0.551474  
C    -0.067829   4.104796    0.094424  
O    -0.020081   4.653431    -0.981869 
C    1.12999     3.898133    0.99414   
H    0.940401    4.336684    1.97838   
H    1.297775    2.826046    1.138791  
H    2.003925    4.359534    0.536013  
C    4.59928     0.159082    -0.323803 
C    5.522045    1.178798    -0.06067  
C    5.044291    -1.167982   -0.292431 
C    6.84985     0.88036     0.225266  
H    5.185566    2.211704    -0.054734 
C    6.372255    -1.467577   -0.008464 
H    4.345504    -1.969325   -0.517602 
C    7.280093    -0.444007   0.251729  
H    7.54869     1.684156    0.435667  
H    6.700718    -2.50238    0.002223  
H    8.316675    -0.6771     0.474197  
H    -1.250931   2.363361    -1.621047 
C    -3.047874   0.920197    -0.407781 
C    -3.642231   0.652824    0.827473  
C    -3.812511   1.421521    -1.462945 
C    -4.997056   0.903113    1.006743  
H    -3.025265   0.257143    1.629682  
C    -5.17095    1.660337    -1.275937 
H    -3.346735   1.601118    -2.427897 
C    -5.765996   1.402778    -0.043663 
H    -5.456373   0.704761    1.97016   
H    -5.765532   2.043547    -2.099157 
H    -6.825859   1.588221    0.097339  
