74                                     
                                       
C    -2.571203   -1.406244   -2.028407 
C    -1.266489   -1.841981   -2.19789  
C    -0.240058   -1.195302   -1.50305  
C    -0.482308   -0.137213   -0.604812 
C    -1.803656   0.25048     -0.427415 
C    -2.847362   -0.351841   -1.143784 
O    1.218463    -0.595744   1.64688   
N    1.995495    -0.883468   -0.909102 
C    1.152735    -1.579676   -1.590092 
Co   1.143225    0.584975    0.147771  
C    2.137531    2.15337     -0.917184 
C    0.770276    2.489005    -0.751456 
C    0.501663    2.557912    0.657603  
C    1.722221    2.291443    1.338948  
C    2.736357    2.029261    0.380716  
C    2.828709    1.976778    -2.236263 
C    -0.195481   2.783008    -1.859893 
C    -0.776038   2.988782    1.315977  
C    1.87145     2.225369    2.827289  
C    4.185907    1.78418     0.6782    
H    -0.027537   2.127165    -2.719407 
H    -1.23083    2.641428    -1.541115 
H    -0.076935   3.819191    -2.197451 
H    -1.575631   3.128552    0.584261  
H    -1.107715   2.245581    2.045929  
H    -0.627256   3.945051    1.830427  
H    0.916127    1.97275     3.294888  
H    2.60093     1.464107    3.117314  
H    2.208044    3.189955    3.224233  
H    -2.165778   -0.86215    2.281491  
C    0.251476    -0.705039   2.483687  
O    -0.75142    0.027451    2.498044  
H    3.756242    1.408585    -2.129268 
H    2.190627    1.446562    -2.951244 
H    3.078589    2.949938    -2.673694 
H    4.312188    1.189873    1.588018  
H    -1.043699   -2.664773   -2.873006 
H    4.684927    1.246088    -0.132506 
H    4.711946    2.734682    0.825368  
H    -2.065857   1.023256    0.285568  
C    0.40274     -1.828318   3.486378  
H    -0.265585   -1.671096   4.333868  
H    0.129517    -2.756331   2.976461  
H    1.438065    -1.906603   3.824706  
H    -3.369383   -1.865056   -2.603791 
C    -4.230543   0.159632    -0.954491 
C    -5.357334   -0.624961   -1.233123 
C    -5.559348   1.920435    -0.321317 
C    -6.622902   -0.086546   -1.041297 
H    -5.242675   -1.64752    -1.576051 
C    -6.734815   1.217984    -0.574902 
H    -5.600064   2.943699    0.046167  
H    -7.508039   -0.681009   -1.246777 
H    -7.700785   1.681406    -0.407501 
N    -4.340985   1.419004    -0.505123 
O    -2.969947   -1.389093   2.012627  
C    -2.576968   -2.42851    1.284825  
O    -1.418268   -2.719091   1.071358  
C    -3.745222   -3.244857   0.786057  
H    -3.439112   -3.812858   -0.092773 
H    -4.049826   -3.942947   1.5724    
H    -4.595176   -2.598353   0.561112  
H    1.486473    -2.445508   -2.168619 
C    3.368855    -1.238441   -0.886255 
C    4.101075    -1.354844   -2.068922 
C    3.98216     -1.449032   0.351111  
C    5.453874    -1.681525   -2.012477 
H    3.612542    -1.161919   -3.02033  
C    5.330488    -1.784385   0.393788  
H    3.378016    -1.356134   1.24937   
C    6.070557    -1.896715   -0.783136 
H    6.025208    -1.762229   -2.931922 
H    5.808034    -1.957968   1.353204  
H    7.12505     -2.149923   -0.741314 
