73                                     
                                       
C    3.570494    0.050692    -0.843184 
C    2.514123    0.867673    -1.224445 
C    1.203729    0.499243    -0.881689 
C    0.904253    -0.682675   -0.184191 
C    1.978447    -1.483469   0.19002   
C    3.292732    -1.145116   -0.137243 
O    -0.763952   -0.615023   2.017144  
N    -1.063142   0.95148     -0.592129 
C    0.060454    1.366805    -1.071388 
Co   -0.980216   -0.901704   0.135299  
C    -1.90305    -1.785888   -1.556986 
C    -0.953573   -2.705391   -1.034248 
C    -1.315419   -2.978542   0.316483  
C    -2.571278   -2.327028   0.573628  
C    -2.940834   -1.601157   -0.572575 
C    -1.876633   -1.191623   -2.93351  
C    0.199831    -3.274397   -1.801678 
C    -0.605065   -3.846104   1.311458  
C    -3.282736   -2.391541   1.888402  
C    -4.224092   -0.8547     -0.786894 
H    0.686815    -2.5146     -2.419134 
H    0.960181    -3.695079   -1.140909 
H    -0.158991   -4.073015   -2.461152 
H    0.337044    -4.228561   0.910898  
H    -0.384436   -3.280513   2.223452  
H    -1.221247   -4.708755   1.588464  
H    -2.612348   -2.073007   2.693014  
H    -4.164078   -1.746182   1.90003   
H    -3.60948    -3.416018   2.098441  
H    0.578522    2.766314    1.33791   
C    -0.336616   0.435837    2.618412  
O    -0.298502   1.573241    2.136541  
H    -2.4702     -0.273554   -2.974316 
H    -0.853486   -0.94117    -3.233377 
H    -2.283341   -1.887074   -3.676353 
H    -4.629202   -0.464662   0.149608  
H    -4.100532   -0.005577   -1.464266 
H    -4.970901   -1.526749   -1.225478 
H    1.842167    -2.402262   0.756034  
C    0.160884    0.192481    4.031329  
H    0.176232    1.125491    4.595256  
H    -0.454415   -0.554271   4.536529  
H    1.18103     -0.202596   3.968751  
C    -2.2211     1.762315    -0.66235  
C    -3.015639   1.88433     0.47977   
C    -2.596189   2.39182     -1.851108 
C    -4.178479   2.642775    0.427377  
H    -2.689065   1.400347    1.395098  
C    -3.767859   3.143323    -1.895091 
H    -1.983062   2.267396    -2.739714 
C    -4.561856   3.268757    -0.758681 
H    -4.790253   2.746675    1.318134  
H    -4.061845   3.624441    -2.822633 
H    -5.476192   3.852053    -0.79605  
H    0.149776    2.359417    -1.515782 
O    1.123129    3.338887    0.745125  
C    2.424471    3.073369    0.889164  
O    3.243329    3.633403    0.197027  
C    2.774429    2.034214    1.932287  
H    2.342026    1.06944     1.642371  
H    3.858193    1.946907    2.00092   
H    2.348898    2.307895    2.902411  
O    4.272519    -1.973186   0.309075  
C    5.315939    -2.336676   -0.588572 
H    6.144523    -1.629444   -0.539888 
H    5.648705    -3.327756   -0.274038 
H    4.945338    -2.386651   -1.6178   
H    2.698731    1.821628    -1.707423 
O    4.882219    0.333048    -1.055284 
C    5.185303    1.601234    -1.614394 
H    4.779487    2.408057    -0.995277 
H    6.273397    1.658703    -1.644106 
H    4.791881    1.682042    -2.635427 
