60                                     
                                       
C    -3.016561   1.291746    2.142564  
C    -2.160787   2.12856     1.444763  
C    -1.00972    1.593332    0.854516  
C    -0.686103   0.225021    0.932987  
C    -1.58083    -0.594819   1.622367  
C    -2.722977   -0.071429   2.225658  
O    0.129608    -0.483662   -1.6821   
N    0.969196    1.694342    -0.425555 
C    -0.087451   2.389945    0.052193  
Co   0.955458    -0.238432   0.014561  
C    0.629998    -3.138124   1.553631  
C    1.944189    -3.023039   -1.312489 
C    3.877451    -0.564799   -1.466265 
C    3.612109    1.070408    1.337883  
H    0.210989    -2.894791   2.532878  
H    -0.191404   -3.332052   0.857905  
H    1.215218    -4.057745   1.665625  
H    0.980542    -3.525208   -1.203492 
H    1.960192    -2.532855   -2.290566 
H    2.739453    -3.777416   -1.296958 
H    3.300358    -0.463108   -2.392558 
H    4.441096    0.359359    -1.311097 
H    4.6089      -1.364808   -1.624107 
H    4.013158    1.593445    0.465629  
H    2.951066    1.765461    1.864754  
H    4.452711    0.84232     2.002147  
H    1.68641     0.552758    3.354765  
H    0.565469    -0.804644   3.406016  
H    2.255847    -1.033689   3.895978  
H    -2.829135   -1.972009   -0.679698 
C    -0.818942   -1.334938   -1.838782 
O    -1.174992   -2.152999   -0.972924 
O    -3.763754   -1.732764   -0.423545 
C    2.150257    -2.025982   -0.215643 
H    -3.912827   1.690236    2.608027  
H    -1.418596   -1.666428   1.659579  
C    -1.475208   -1.303599   -3.201606 
H    -2.294768   -2.02188    -3.24383  
H    -1.8523     -0.297028   -3.388333 
H    -0.732489   -1.545309   -3.967783 
C    1.967002    -0.88176    1.775416  
C    2.891849    -0.188159   0.952273  
C    1.597765    -0.523713   3.183281  
C    2.993979    -0.882865   -0.294406 
C    -3.949421   -0.436259   -0.660567 
O    -3.136281   0.283585    -1.199773 
C    -5.309274   0.029032    -0.199562 
H    -6.08266    -0.451125   -0.806234 
H    -5.470254   -0.268582   0.839334  
H    -5.37661    1.111626    -0.299804 
C    1.506122    -2.033245   1.045632  
C    -0.202539   3.743629    -0.278242 
C    1.839759    2.311748    -1.226024 
C    0.774132    4.290895    -1.089798 
H    -1.033259   4.339953    0.077324  
H    2.646187    1.701724    -1.621643 
H    0.736016    5.339517    -1.374523 
H    -2.39286    3.186569    1.356483  
H    -3.404626   -0.738367   2.747676  
N    1.802999    3.585509    -1.579955 
