63                                     
                                       
C    -2.193745   2.948522    0.329664  
C    -0.884885   3.261246    -0.034668 
C    0.054824    2.24578     -0.081989 
C    -0.227314   0.907385    0.230043  
C    -1.537742   0.620249    0.578088  
C    -2.517702   1.623954    0.62677   
O    0.852821    -0.510589   -1.86088  
N    2.19407     1.40421     -0.546708 
N    1.397152    2.48082     -0.500858 
Co   1.294973    -0.27697    -0.011675 
C    2.569758    -0.581753   1.654085  
C    1.258466    -0.984617   2.007719  
C    0.860738    -2.042022   1.126794  
C    1.960992    -2.3127     0.260635  
C    3.011923    -1.414714   0.566651  
C    3.354812    0.509801    2.318195  
C    0.429187    -0.438285   3.128829  
C    -0.387947   -2.860778   1.253245  
C    1.972217    -3.324206   -0.843022 
C    4.359238    -1.396164   -0.095476 
H    0.572852    0.638415    3.254077  
H    -0.633786   -0.613369   2.947866  
H    0.70016     -0.930529   4.070006  
H    -1.301918   -2.265477   1.291057  
H    -0.500058   -3.532559   0.401856  
H    -0.333457   -3.463048   2.168338  
H    0.967502    -3.453456   -1.251785 
H    2.634063    -3.013052   -1.65574  
H    2.321935    -4.293957   -0.470945 
H    -2.592456   -1.459949   -1.356772 
C    -0.246296   -1.094257   -2.172944 
O    -0.944288   -1.740496   -1.376054 
H    4.079606    0.961036    1.634996  
H    2.69521     1.309029    2.669014  
H    3.902729    0.122751    3.184406  
H    4.277517    -1.347259   -1.186936 
C    3.366937    1.813333    -1.021502 
H    -0.628848   4.287001    -0.283919 
H    4.9574      -0.545456   0.242396  
H    4.921788    -2.303775   0.149273  
H    -2.936651   3.735611    0.364276  
H    -1.857373   -0.393031   0.803729  
C    -0.695697   -0.9396     -3.611778 
H    -1.556675   -0.262883   -3.624946 
H    0.095689    -0.528589   -4.237947 
H    -1.030836   -1.904874   -3.996979 
H    4.117937    3.813152    -1.668334 
H    4.170739    1.105891    -1.161644 
C    3.328031    3.189568    -1.281095 
C    2.045088    3.577465    -0.936733 
H    1.555634    4.538086    -0.975686 
O    -3.536477   -1.134158   -1.387628 
C    -4.138953   -1.411221   -0.235706 
O    -3.603585   -1.971385   0.696408  
C    -5.584223   -0.978205   -0.236944 
H    -6.175826   -1.698343   -0.810525 
H    -5.950735   -0.945904   0.788879  
H    -5.682554   -0.00241    -0.716623 
O    -3.76693    1.209729    0.975212  
C    -4.779948   2.185402    1.05021   
H    -4.946025   2.665804    0.077477  
H    -5.686072   1.660159    1.353312  
H    -4.539197   2.954067    1.795129  
