72                                     
                                       
C    2.930984    0.869847    -1.762965 
C    1.688177    1.433528    -2.00537  
C    0.553426    0.869412    -1.412093 
C    0.624899    -0.281594   -0.598297 
C    1.876982    -0.813258   -0.339524 
C    3.016632    -0.223974   -0.896723 
O    -0.698792   -0.174495   1.892573  
N    -1.656066   0.943551    -0.675515 
C    -0.743041   1.503746    -1.394629 
Co   -1.084391   -0.785576   0.116889  
C    -2.052956   -2.02556    -1.290725 
C    -0.87869    -2.694145   -0.843344 
C    -0.9806     -2.841603   0.56992   
C    -2.288426   -2.390718   0.966751  
C    -2.95263    -1.899189   -0.170625 
C    -2.35201    -1.612765   -2.701109 
C    0.237655    -3.16563    -1.723815 
C    0.023624    -3.434169   1.512452  
C    -2.77279    -2.399068   2.382588  
C    -4.370229   -1.416562   -0.251427 
H    0.43386     -2.463279   -2.538104 
H    1.172734    -3.295412   -1.174963 
H    -0.0352     -4.131116   -2.165108 
H    0.969742    -3.649646   1.009886  
H    0.226602    -2.745182   2.339692  
H    -0.347064   -4.37304    1.938855  
H    -2.102073   -1.80364    3.010757  
H    -3.780419   -1.985054   2.464988  
H    -2.793071   -3.421488   2.775067  
H    2.013513    1.997931    1.418382  
C    0.01356     0.837209    2.236935  
O    0.328592    1.780644    1.497086  
H    -3.030439   -0.753587   -2.720546 
H    -1.437159   -1.326286   -3.228999 
H    -2.825323   -2.424641   -3.26462  
H    -4.726874   -1.036075   0.708258  
H    1.604051    2.318661    -2.632093 
H    -4.492542   -0.614762   -0.984834 
H    -5.022807   -2.244567   -0.551841 
H    3.831907    1.292309    -2.193151 
H    2.020359    -1.656504   0.330186  
C    0.519628    0.805901    3.667419  
H    0.580114    1.819642    4.066257  
H    -0.110136   0.178655    4.299233  
H    1.531473    0.384982    3.657516  
N    4.284029    -0.7246     -0.541887 
C    5.410152    0.005842    -0.307019 
C    6.382162    -0.894202   0.058266  
H    5.382975    1.088555    -0.348277 
C    5.734863    -2.150926   0.022175  
H    7.402982    -0.677075   0.331703  
H    6.146387    -3.127697   0.237676  
N    4.464408    -2.045029   -0.332019 
O    2.983389    2.010847    1.209327  
C    3.275966    3.032547    0.406427  
O    4.365471    3.129859    -0.112237 
C    2.169572    4.049122    0.217152  
H    1.982545    4.564874    1.164184  
H    2.467183    4.771047    -0.542187 
H    1.240069    3.545591    -0.063299 
H    -0.930456   2.461133    -1.888186 
C    -2.926436   1.538575    -0.504491 
C    -3.476864   1.541898    0.779991  
C    -3.640943   2.071464    -1.579399 
C    -4.733164   2.098364    0.985446  
H    -2.90234    1.109889    1.595919  
C    -4.903547   2.617898    -1.363578 
H    -3.219058   2.027677    -2.579949 
C    -5.451263   2.634074    -0.08371  
H    -5.157151   2.110477    1.984704  
H    -5.462985   3.022116    -2.201312 
H    -6.436867   3.057403    0.0801    
