72                                     
                                       
C    1.466577    1.695862    -1.958947 
C    0.160568    2.175617    -1.955923 
C    -0.799921   1.431101    -1.284923 
C    -0.551235   0.191797    -0.683106 
C    0.764864    -0.242226   -0.685957 
C    1.78107     0.507543    -1.297481 
O    -1.533949   -0.16432    1.941818  
N    -2.894148   1.168521    -0.270782 
N    -2.107654   1.933281    -1.044    
Co   -2.098747   -0.577292   0.166281  
C    -3.141687   -1.704484   -1.27756  
C    -1.891099   -2.341754   -1.044221 
C    -1.819275   -2.660328   0.341894  
C    -3.092733   -2.345301   0.933434  
C    -3.903421   -1.759261   -0.054476 
C    -3.62313    -1.146318   -2.583729 
C    -0.851333   -2.6212     -2.084639 
C    -0.680202   -3.28276    1.09166   
C    -3.410206   -2.552022   2.380943  
C    -5.317331   -1.286387   0.104059  
H    -0.764038   -1.801732   -2.802157 
H    0.13529     -2.774373   -1.643188 
H    -1.122887   -3.530355   -2.632973 
H    0.227929    -3.324572   0.485678  
H    -0.456864   -2.702882   1.993236  
H    -0.925167   -4.306055   1.397475  
H    -2.721055   -1.970402   3.001927  
H    -4.431876   -2.245028   2.6165    
H    -3.304848   -3.609242   2.646559  
H    0.993596    2.069795    1.635586  
C    -0.904947   0.882758    2.336788  
O    -0.72534    1.9143      1.671084  
H    -4.22081    -0.241571   -2.430878 
H    -2.781281   -0.877872   -3.227913 
H    -4.242681   -1.87056    -3.124185 
H    -5.513559   -0.921268   1.116473  
H    -5.548873   -0.482467   -0.600165 
H    -6.017994   -2.104998   -0.094677 
H    1.060431    -1.148584   -0.162164 
C    -0.300994   0.776064    3.72543   
H    -0.329365   1.748459    4.219712  
H    -0.811431   0.022714    4.326147  
H    0.749345    0.483649    3.61415   
O    1.966797    1.948677    1.497925  
C    2.452344    2.908661    0.712949  
O    3.572471    2.845567    0.259923  
C    1.529318    4.090082    0.483659  
H    1.596168    4.757678    1.349183  
H    1.85244     4.6322      -0.405139 
H    0.489282    3.767105    0.385398  
C    3.193356    0.131278    -1.141378 
H    3.926617    0.871454    -1.486989 
N    3.546505    -0.961986   -0.590765 
C    4.920312    -1.145209   -0.335502 
C    5.715502    -0.109396   0.172854  
C    5.478629    -2.410298   -0.543513 
C    7.062377    -0.340514   0.435098  
H    5.255978    0.852995    0.388344  
C    6.828251    -2.625819   -0.293631 
H    4.839133    -3.206046   -0.912634 
C    7.62571     -1.591814   0.195861  
H    7.67314     0.462428    0.837147  
H    7.258766    -3.606761   -0.472149 
H    8.677043    -1.76592    0.403034  
H    2.258599    2.278777    -2.421179 
C    -2.690532   3.122372    -1.292045 
C    -3.995338   1.87003     -0.028585 
C    -3.920228   3.119634    -0.661363 
H    -2.194011   3.876214    -1.883046 
H    -4.777071   1.454427    0.590093  
H    -4.651883   3.911585    -0.651239 
H    -0.076257   3.129344    -2.418588 
