82                                     
                                       
C    1.832043    4.118203    -1.291711 
C    0.742485    3.253435    -1.347142 
C    0.942936    1.926072    -0.98661  
C    2.178908    1.399093    -0.604932 
C    3.237143    2.302993    -0.527035 
C    3.073748    3.647858    -0.870396 
O    2.234895    -0.189033   1.683007  
N    0.178181    -0.231035   -0.439603 
N    -0.135811   1.006392    -0.885499 
Co   2.132376    -0.486091   -0.215223 
C    2.591549    -1.443365   -2.044987 
C    3.777743    -0.803829   -1.584291 
C    4.071538    -1.319709   -0.295474 
C    3.148748    -2.397371   -0.027866 
C    2.261561    -2.489617   -1.113987 
C    1.88917     -1.179381   -3.343093 
C    4.57244     0.189498    -2.373379 
C    5.171892    -0.915961   0.637716  
C    3.168957    -3.21168    1.228046  
C    1.204895    -3.520074   -1.366647 
H    3.939582    0.9523      -2.833092 
H    5.316706    0.699077    -1.758597 
H    5.105616    -0.339966   -3.171328 
H    5.675845    -0.007927   0.296645  
H    4.766021    -0.722919   1.635959  
H    5.926691    -1.706115   0.719618  
H    2.985564    -2.569291   2.09782   
H    2.407512    -3.994289   1.207987  
H    4.146556    -3.687801   1.360788  
H    -0.592579   2.46243     1.623222  
C    1.494865    0.619072    2.363571  
O    0.425558    1.100658    1.979739  
H    0.806105    -1.293527   -3.232889 
H    2.07923     -0.160183   -3.691005 
H    2.220644    -1.871088   -4.126172 
H    0.917286    -4.058624   -0.46084  
C    -0.973404   -0.849114   -0.179943 
H    -0.242019   3.632101    -1.60307  
H    0.302064    -3.072422   -1.790818 
H    1.583438    -4.247957   -2.094144 
H    1.689967    5.165082    -1.537454 
H    4.211774    1.959464    -0.186342 
H    3.914311    4.331542    -0.796547 
C    2.049418    0.977552    3.729748  
H    2.765492    1.797129    3.602848  
H    1.247325    1.311906    4.388625  
H    2.582275    0.131816    4.16759   
C    -2.053599   0.007683    -0.5037   
C    -1.461883   1.186433    -0.931998 
H    -1.912127   2.130784    -1.195774 
C    -3.480281   -0.229004   -0.335748 
H    -3.76841    -1.104592   0.261316  
O    -1.049276   3.217331    1.186395  
C    -0.292778   4.32403     1.247816  
O    -0.632445   5.335824    0.687793  
C    0.993422    4.180187    2.03306   
H    1.626408    3.428296    1.548851  
H    1.506917    5.140289    2.056889  
H    0.783918    3.83449     3.050199  
C    -1.038314   -2.182877   0.437746  
C    -1.945173   -3.138558   -0.034449 
C    -0.205361   -2.495702   1.516707  
C    -2.009575   -4.395933   0.55609   
H    -2.57659    -2.902671   -0.887054 
C    -0.278832   -3.75359    2.108434  
H    0.496202    -1.752396   1.883984  
C    -1.175684   -4.706107   1.62918   
H    -2.707503   -5.135107   0.175994  
H    0.367192    -3.988207   2.949386  
H    -1.228499   -5.686381   2.092514  
N    -4.342064   0.553332    -0.857525 
C    -5.706366   0.322157    -0.591084 
C    -6.616334   0.524376    -1.634317 
C    -6.182033   -0.055952   0.670175  
C    -7.972767   0.304437    -1.432643 
H    -6.233099   0.845262    -2.597583 
C    -7.544035   -0.259588   0.869625  
H    -5.485561   -0.15129    1.498178  
C    -8.442442   -0.090119   -0.180318 
H    -8.66898    0.451908    -2.252621 
H    -7.90466    -0.541687   1.854183  
H    -9.504345   -0.247335   -0.020291 
