75                                     
                                       
C    -0.181414   3.207055    -0.657341 
C    -0.993179   2.078318    -0.67467  
C    -0.416553   0.821388    -0.471564 
C    0.968154    0.661865    -0.262318 
C    1.758191    1.804361    -0.209106 
C    1.179383    3.054531    -0.410196 
O    2.135105    -1.016767   1.721625  
N    -0.405233   -1.462358   0.182334  
C    -1.125259   -0.437046   -0.254013 
Co   1.529141    -1.173445   -0.078512 
C    1.620797    -1.90314    -2.066647 
C    2.660532    -0.94344    -1.908339 
C    3.492885    -1.382743   -0.844285 
C    3.046352    -2.693939   -0.444214 
C    1.912197    -3.020434   -1.207286 
C    0.477174    -1.820153   -3.033004 
C    2.828944    0.287768    -2.743976 
C    4.67551     -0.684417   -0.244321 
C    3.687982    -3.485718   0.651903  
C    1.150265    -4.310314   -1.217302 
H    1.869402    0.762096    -2.966817 
H    3.456463    1.03469     -2.253386 
H    3.305312    0.016933    -3.693184 
H    4.778941    0.333271    -0.629799 
H    4.566811    -0.627282   0.84397   
H    5.60476     -1.220328   -0.467694 
H    3.682914    -2.905419   1.580543  
H    3.160593    -4.425545   0.832122  
H    4.727113    -3.723793   0.399803  
H    -0.396316   1.449218    2.780354  
C    1.487551    -0.426913   2.666702  
O    0.332801    -0.007639   2.57616   
H    -0.402661   -2.342711   -2.642021 
H    0.19243     -0.777501   -3.209816 
H    0.73031     -2.267815   -4.000837 
H    1.366914    -4.920756   -0.337738 
C    -1.289004   -2.458652   0.529631  
H    -2.064374   2.192979    -0.809838 
H    0.069727    -4.148312   -1.253602 
H    1.428264    -4.89278    -2.103399 
H    -0.598015   4.195679    -0.813599 
H    2.824785    1.738044    -0.009129 
C    2.280732    -0.261541   3.95094   
H    1.623441    0.039312    4.766518  
H    2.795521    -1.192078   4.200005  
H    3.043428    0.508479    3.798534  
C    -2.590908   -2.023456   0.223275  
C    -1.084085   -3.706794   1.123829  
C    -3.712827   -2.822105   0.434103  
C    -2.197666   -4.498909   1.352657  
H    -2.07375    -5.47092    1.818695  
C    -3.491386   -4.067662   1.002975  
H    -0.083888   -4.023137   1.403243  
H    -4.336918   -4.719689   1.195761  
H    -4.708537   -2.476456   0.177082  
O    -2.548233   1.099404    1.981684  
C    -2.055861   2.179569    2.238103  
O    -0.834551   2.344275    2.720139  
C    -2.772881   3.494478    2.046139  
H    -2.973729   3.947875    3.021023  
H    -2.132993   4.182457    1.487916  
H    -3.710893   3.326764    1.516225  
C    -3.505443   0.040987    -0.84901  
C    -3.463283   0.358027    -2.205207 
C    -4.56687    0.449603    -0.045177 
C    -4.48704    1.118254    -2.761205 
H    -2.625886   0.014378    -2.806072 
C    -5.595175   1.193902    -0.617175 
H    -4.543144   0.222469    1.014029  
C    -5.554927   1.533088    -1.968214 
H    -4.454457   1.377451    -3.814433 
H    -6.425047   1.521384    0.000954  
H    -6.35637    2.121387    -2.40369  
N    -2.451146   -0.7415     -0.293256 
Br   2.280839    4.596874    -0.35647  
