77                                     
                                       
C    1.176408    -4.00448    1.337721  
C    1.645066    -2.93588    0.582991  
C    0.743715    -1.958372   0.147521  
C    -0.629357   -2.041145   0.443886  
C    -1.064759   -3.102016   1.232764  
C    -0.174753   -4.080277   1.673859  
O    -2.163634   -0.062842   1.571649  
N    0.077018    0.258828    -0.478712 
C    1.119332    -0.674051   -0.446669 
Co   -1.699748   -0.58471    -0.211932 
C    -2.075756   -1.084217   -2.233762 
C    -2.812585   -1.991761   -1.417171 
C    -3.683313   -1.22615    -0.600849 
C    -3.580811   0.15422     -1.010893 
C    -2.620413   0.231815    -2.03382  
C    -1.011012   -1.454861   -3.222759 
C    -2.679681   -3.4823     -1.457501 
C    -4.605488   -1.711508   0.476194  
C    -4.35948    1.268307    -0.382822 
C    -2.231923   1.430945    -2.842258 
H    -1.636742   -3.793158   -1.557722 
H    -3.07467    -3.951447   -0.554403 
H    -3.239764   -3.871918   -2.315439 
H    -4.509959   -2.789526   0.628472  
H    -4.376079   -1.212747   1.423756  
H    -5.649631   -1.501808   0.219349  
H    -4.304279   1.196006    0.708039  
H    -3.972464   2.247596    -0.675551 
H    -5.415131   1.219633    -0.67274  
H    0.653574    1.459847    2.00734   
C    -1.708216   0.932114    2.230067  
O    -0.966433   1.820988    1.76395   
H    -0.289809   -0.641041   -3.350109 
H    -0.454043   -2.334226   -2.884785 
H    -1.435475   -1.681421   -4.207608 
H    -2.526782   2.36982     -2.36845  
C    0.605404    1.410704    -0.763431 
H    2.70696     -2.846152   0.371377  
H    -1.152877   1.462548    -3.021191 
H    -2.719022   1.384624    -3.822976 
H    1.869265    -4.764497   1.685524  
H    -2.111153   -3.159422   1.527495  
H    -0.531886   -4.898429   2.293059  
C    -2.11407    0.978614    3.686008  
H    -1.374021   0.387716    4.234538  
H    -2.094054   2.005809    4.051965  
H    -3.097779   0.530637    3.834848  
O    1.920636    1.308759    -0.976243 
C    2.260237    -0.010401   -0.784165 
C    3.664686    -0.361921   -0.958353 
C    4.025593    -1.600542   -1.500463 
C    4.662955    0.548728    -0.58925  
C    5.367758    -1.932337   -1.649404 
H    3.247889    -2.290535   -1.81598  
C    6.002187    0.215023    -0.750903 
H    4.375406    1.50473     -0.162041 
C    6.357917    -1.026175   -1.276286 
H    5.640296    -2.894728   -2.070739 
H    6.771577    0.92282     -0.459074 
H    7.404969    -1.284937   -1.39769  
C    -0.020784   2.754529    -0.858315 
H    0.036561    3.116114    -1.890586 
H    -1.071243   2.651924    -0.58465  
C    0.653447    3.766008    0.067404  
H    1.741008    3.778022    -0.060826 
H    0.45137     3.522359    1.114101  
C    0.122079    5.148995    -0.206453 
O    -0.712768   5.429773    -1.030868 
O    0.69352     6.069465    0.591394  
H    0.289474    6.924078    0.360764  
O    1.612559    1.181379    2.026973  
C    1.658574    0.001003    2.659442  
O    0.682083    -0.536839   3.129495  
C    3.054175    -0.563136   2.725334  
H    3.028149    -1.527739   3.230255  
H    3.457838    -0.678996   1.715365  
H    3.706103    0.131493    3.26268   
