62                                     
                                       
C    2.999795    0.695046    -1.433613 
C    1.925834    1.56424     -1.582251 
C    0.671836    1.146829    -1.134922 
C    0.418105    -0.11334    -0.564775 
C    1.515916    -0.957904   -0.42301  
C    2.783207    -0.550351   -0.843941 
H    -0.236416   -2.589058   2.179212  
C    -2.776962   -1.595177   1.124196  
C    -0.511609   1.996259    -1.130727 
Co   -1.394487   -0.287763   0.132919  
C    -3.434963   -0.924059   0.074708  
C    -2.735483   -1.239761   -1.149937 
C    -1.688707   -2.149128   -0.840462 
C    -1.657106   -2.310386   0.579677  
C    -3.109273   -1.55531    2.582991  
C    -4.668927   -0.079799   0.199186  
C    -3.089718   -0.772713   -2.529896 
C    -0.806035   -2.816065   -1.848983 
C    -0.731058   -3.167224   1.391333  
H    -1.286746   -3.977589   1.874443  
H    -2.232271   -1.281794   3.178833  
H    -3.916535   -0.851442   2.799008  
H    -3.437297   -2.546032   2.915128  
H    -4.662701   0.526874    1.109619  
H    -4.786258   0.592672    -0.653318 
H    -5.559292   -0.716151   0.234243  
H    -3.702654   0.131565    -2.504624 
H    -2.193672   -0.55521    -3.118656 
H    -1.344478   -3.660306   -2.293334 
O    -0.732041   0.388113    1.865264  
H    0.249756    0.533853    1.902187  
C    -1.384629   1.478692    2.513307  
H    -3.660137   -1.541116   -3.062077 
H    4.127244    0.488241    1.647268  
H    1.415873    -1.932615   0.047667  
O    1.893153    0.786262    2.042866  
O    3.958112    1.44522     1.540831  
H    0.111004    -3.203881   -1.40222  
H    -0.523441   -2.134318   -2.654873 
C    2.665938    1.671367    1.713031  
N    -1.605125   1.551937    -0.606307 
C    2.293196    3.110036    1.503661  
H    2.567779    3.677153    2.398634  
H    2.842537    3.526732    0.658542  
H    1.217874    3.195099    1.341634  
H    3.995907    0.980489    -1.753393 
C    -2.636237   2.579003    -0.776139 
H    2.055963    2.547657    -2.024643 
C    -1.824278   3.789559    -1.290065 
O    -0.524498   3.229809    -1.612599 
H    -3.38189    2.243957    -1.504008 
H    -2.225607   4.243524    -2.194765 
H    -3.148718   2.784168    0.167604  
H    -1.668872   4.556601    -0.528224 
H    0.040412    -3.62794    0.770557  
H    -2.444516   1.228377    2.595517  
H    -0.966378   1.609571    3.513665  
H    -1.27265    2.403984    1.937617  
C    3.955599    -1.443485   -0.543811 
F    4.355743    -1.27177    0.74546   
F    5.009344    -1.180414   -1.313122 
F    3.646998    -2.734507   -0.671246 
