74                                     
                                       
C    -0.611266   3.219049    -0.900422 
C    -1.245416   1.983356    -0.985244 
C    -0.539009   0.823713    -0.651293 
C    0.817551    0.857701    -0.253775 
C    1.407648    2.112196    -0.111813 
C    0.700719    3.275044    -0.442961 
H    4.044723    -1.01039    2.360022  
C    3.716347    -1.149658   0.234574  
C    -1.086328   -0.527133   -0.551679 
Co   1.605826    -0.908418   0.062961  
C    3.115858    -2.452696   0.065489  
C    2.461029    -2.462217   -1.186496 
C    2.571896    -1.160589   -1.763106 
C    3.43984     -0.384231   -0.920202 
C    3.335772    -3.63626    0.965122  
C    1.772562    -3.620173   -1.840806 
C    2.018312    -0.743778   -3.092042 
C    4.038024    0.934445    -1.295923 
C    4.528083    -0.724444   1.420951  
H    5.518922    -1.189884   1.397087  
H    3.832487    -3.339639   1.89222   
H    2.409755    -4.153347   1.232931  
H    3.986901    -4.363836   0.469338  
H    1.798965    -4.512634   -1.212064 
H    0.727824    -3.400068   -2.079607 
H    2.284225    -3.857226   -2.779675 
H    1.077669    -1.261741   -3.301378 
H    1.820807    0.331299    -3.118779 
H    4.900507    0.745719    -1.945114 
O    1.24801     -0.674425   1.994346  
H    0.397436    -0.172449   2.065861  
C    1.117624    -1.813212   2.854793  
H    4.66555     0.358651    1.441729  
H    -0.050785   2.268676    1.715729  
H    2.718357    -0.980463   -3.900694 
O    -1.203378   0.347833    2.389724  
H    -1.136599   4.131298    -1.15772  
H    2.425789    2.217355    0.248926  
N    -0.250581   -1.506312   -0.21541  
O    -0.828208   2.552969    2.239473  
H    4.400048    1.493235    -0.430086 
H    3.338743    1.565583    -1.848497 
C    -1.545646   1.50295     2.603083  
C    -1.014776   -2.647192   -0.032496 
C    -2.822574   1.890365    3.285836  
H    -2.613951   2.61533     4.075669  
H    -3.476765   2.377694    2.556121  
H    -3.307432   1.006483    3.697469  
C    -2.354716   -2.322645   -0.293579 
H    -2.281391   1.943949    -1.303571 
C    -0.675561   -3.946293   0.35949   
C    -3.391639   -3.247324   -0.1901   
C    -3.03765    -4.530552   0.195518  
H    -3.807751   -5.287893   0.292625  
C    -1.699374   -4.87315    0.468987  
H    0.354613    -4.21237    0.570738  
H    -4.419517   -2.968889   -0.397047 
H    -1.467024   -5.888112   0.772771  
H    2.10137     -2.272491   2.946541  
H    0.780504    -1.478432   3.837733  
H    0.402234    -2.533059   2.444498  
N    -2.364214   -0.972805   -0.629476 
C    -3.552557   -0.190298   -0.796159 
C    -4.190975   0.287323    0.345433  
C    -4.046129   0.067015    -2.070602 
C    -5.33927    1.060227    0.203081  
H    -3.777546   0.043364    1.32029   
C    -5.193481   0.845929    -2.201998 
H    -3.529754   -0.33019    -2.938934 
C    -5.834931   1.34352     -1.069119 
H    -5.850682   1.437009    1.083171  
H    -5.587937   1.060245    -3.189495 
H    -6.729416   1.947802    -1.1778   
Br   1.545834    4.946102    -0.243725 
