63                                     
                                       
C    2.742551    -2.251349   -1.546231 
C    2.571917    -0.872013   -1.706224 
C    1.4602      -0.268806   -1.073145 
C    0.522892    -1.048789   -0.356999 
C    0.766884    -2.40833    -0.175347 
C    1.877698    -3.013096   -0.768912 
H    -1.981897   -2.885445   1.81597   
C    3.601105    -0.14435    -2.53586  
C    1.168811    1.18401     -1.006945 
Co   -1.050957   -0.097919   0.205316  
C    -3.115715   -0.399306   0.797921  
C    -3.052268   0.657279    -0.133551 
C    -2.457103   0.134304    -1.339694 
C    -2.218392   -1.253431   -1.153306 
C    -2.557245   -1.574434   0.199173  
C    -3.653319   -0.356549   2.194808  
C    -3.62648    2.032994    0.039856  
C    -2.207922   0.900632    -2.604214 
C    -1.722139   -2.193025   -2.209133 
C    -2.528536   -2.91756    0.867189  
H    -3.54761    -3.253896   1.086024  
H    -2.923056   -0.741377   2.914735  
H    -3.941547   0.654299    2.493087  
H    -4.545548   -0.988052   2.265661  
H    -3.47575    2.425259    1.051238  
H    -3.196361   2.743801    -0.670282 
H    -4.706395   2.011314    -0.140827 
H    -1.965428   1.948129    -2.401258 
H    -1.376083   0.469747    -3.168662 
O    -0.420216   -0.076331   2.066886  
H    0.555186    -0.239048   2.073877  
C    -0.631337   1.093194    2.869845  
H    -1.236451   2.874605    0.491966  
H    2.748378    -1.573767   0.957728  
H    2.146417    4.368544    -1.68125  
O    2.178888    0.253138    2.278495  
H    -2.066169   -3.67535    0.231506  
C    0.394782    3.818757    -0.554353 
C    1.545651    3.555151    -1.287263 
H    -3.093541   0.882242    -3.24802  
C    -0.329596   2.733953    -0.087178 
C    1.936726    2.240963    -1.509182 
H    3.592038    -2.728973   -2.024624 
H    0.082356    -3.015515   0.411395  
N    0.035841    1.467385    -0.311021 
O    3.579911    -1.209563   1.325282  
H    -1.366778   -3.131432   -1.780132 
H    -0.897347   -1.761718   -2.783423 
C    3.311939    -0.154652   2.07961   
H    2.839374    2.05086     -2.066094 
C    4.544081    0.470653    2.660455  
H    5.028307    -0.247717   3.327538  
H    5.252116    0.703517    1.861828  
H    4.277161    1.370059    3.211617  
H    0.062334    4.828796    -0.347643 
H    3.143843    0.449508    -3.332782 
H    4.221048    0.519132    -1.922623 
H    4.271502    -0.864495   -3.008493 
H    2.062102    -4.074969   -0.635777 
H    -2.53749    -2.422527   -2.903395 
H    -1.674834   1.391298    2.753757  
H    -0.437133   0.849095    3.915943  
H    0.032426    1.90103     2.5518    
