64                                     
                                       
C    -4.085726   -0.85661    -1.757945 
C    -2.832668   -1.411347   -2.000468 
C    -1.715934   -0.868633   -1.355446 
C    -1.794102   0.227643    -0.467252 
C    -3.070844   0.727037    -0.209176 
C    -4.200524   0.204668    -0.854347 
O    0.001439    -0.171746   1.898112  
N    0.565861    -0.859872   -0.830254 
C    -0.387246   -1.439484   -1.477216 
Co   -0.033914   0.778963    0.156164  
C    0.351152    2.320746    -1.176993 
C    -0.490623   2.852269    -0.141523 
C    0.177337    2.66899     1.088066  
C    1.500874    2.15376     0.808462  
C    1.62024     1.998359    -0.583992 
C    0.034214    2.300522    -2.641968 
C    -1.782326   3.569249    -0.3709   
C    -0.323981   2.998456    2.460312  
C    2.535511    1.895113    1.859316  
C    2.834997    1.596374    -1.360958 
H    -2.374168   3.11433     -1.167692 
H    -2.394068   3.622263    0.532192  
H    -1.552446   4.598068    -0.670532 
H    -1.40849    3.12831     2.473497  
H    -0.071634   2.202313    3.166522  
H    0.13152     3.926714    2.821347  
H    2.125928    1.270385    2.660716  
H    3.415176    1.396013    1.446139  
H    2.864171    2.836766    2.311329  
H    -1.66329    -1.976622   1.41034   
C    -0.011325   -1.343809   2.302821  
O    -0.805254   -2.273181   1.874055  
O    -3.20344    -2.124091   1.153152  
H    -1.038135   2.16978     -2.810501 
H    -3.62958    -1.507614   0.536707  
H    3.579651    1.091694    -0.742825 
H    -2.723048   -2.253094   -2.680064 
H    2.586351    0.934507    -2.194616 
H    3.294723    2.497515    -1.781964 
H    -4.965988   -1.24813    -2.25666  
H    -3.212794   1.535231    0.50243   
H    -5.179823   0.625321    -0.644415 
C    0.942766    -1.81088    3.362172  
H    0.377507    -2.186403   4.218772  
H    1.528203    -2.645314   2.964642  
H    1.601381    -1.000466   3.670833  
C    1.887433    -1.385806   -0.860431 
C    2.67129     -1.274488   0.289893  
C    2.421358    -1.963466   -2.015178 
C    3.968798    -1.774817   0.296903  
H    2.265263    -0.784797   1.169165  
C    3.723109    -2.453773   -2.002609 
H    1.837365    -1.993915   -2.930529 
C    4.497805    -2.367345   -0.84793  
H    4.57054     -1.693134   1.19666   
H    4.137334    -2.891988   -2.904492 
H    5.513432    -2.748055   -0.845076 
H    -0.205416   -2.353703   -2.046465 
H    0.552345    1.479812    -3.146783 
H    0.342523    3.234681    -3.123734 
C    -3.54255    -3.463213   0.802137  
H    -3.204192   -3.707474   -0.211071 
H    -3.039616   -4.113739   1.518294  
H    -4.622236   -3.617078   0.876145  
