64                                     
                                       
C    -3.133415   -2.047366   -1.232426 
C    -1.824533   -2.501954   -1.329432 
C    -0.773605   -1.638896   -1.003703 
C    -0.985259   -0.304875   -0.598773 
C    -2.303415   0.129838    -0.490341 
C    -3.355299   -0.739218   -0.803583 
O    0.203088    0.07019     1.765324  
N    1.47102     -1.202729   -0.504966 
C    0.616144    -2.053097   -0.960596 
Co   0.656493    0.588278    -0.080161 
C    1.584366    1.58628     -1.674802 
C    0.263265    2.087949    -1.528428 
C    0.146376    2.618532    -0.205572 
C    1.444739    2.557852    0.401205  
C    2.331656    1.910097    -0.482342 
C    2.122977    0.94142     -2.916096 
C    -0.77542    2.089782    -2.606538 
C    -1.040477   3.297986    0.412504  
C    1.749388    3.149912    1.741648  
C    3.804345    1.705625    -0.284508 
H    -0.764229   1.160473    -3.181863 
H    -1.782842   2.222891    -2.208588 
H    -0.572149   2.9166      -3.296054 
H    -1.902      3.291183    -0.258556 
H    -1.33756    2.823354    1.354216  
H    -0.80794    4.345632    0.630584  
H    1.023616    2.834177    2.498146  
H    2.753752    2.897749    2.087356  
H    1.688822    4.241894    1.673828  
H    -1.081836   -1.007038   3.295432  
C    0.554221    -0.112384   2.940866  
O    -0.234022   -0.701542   3.781032  
O    -2.186227   -1.497654   2.311546  
H    1.418113    0.209722    -3.324879 
H    -1.930581   -1.145936   1.44168   
H    4.056098    1.528932    0.765111  
H    -1.626829   -3.525403   -1.636864 
H    4.179415    0.853461    -0.856549 
H    4.348512    2.59748     -0.613795 
H    -2.546564   1.133035    -0.151451 
C    1.869869    0.311993    3.520806  
H    1.690423    1.050634    4.307424  
H    2.347742    -0.551694   3.990558  
H    2.514223    0.738643    2.753448  
H    -3.972297   -2.691554   -1.468904 
Br   -5.125538   -0.128883   -0.600719 
H    3.069549    0.432303    -2.723385 
H    2.299754    1.697221    -3.688718 
C    -3.586244   -1.29392    2.507004  
H    -3.810257   -1.601546   3.528098  
H    -3.862574   -0.242867   2.370614  
H    -4.160964   -1.909485   1.809468  
H    0.934859    -3.053385   -1.263367 
C    2.850036    -1.55542    -0.461434 
C    3.544762    -1.416636   0.739185  
C    3.504873    -2.01643    -1.604697 
C    4.89567     -1.737618   0.797476  
H    3.011382    -1.079276   1.621155  
C    4.86159     -2.325404   -1.541979 
H    2.958195    -2.104479   -2.539662 
C    5.558765    -2.184567   -0.344766 
H    5.432413    -1.641123   1.735623  
H    5.372818    -2.6744     -2.43302  
H    6.615364    -2.425544   -0.300106 
