71                                     
                                       
C    -3.319136   -1.86629    0.820337  
C    -2.04591    -2.346355   1.083712  
C    -0.924595   -1.646433   0.628084  
C    -1.045999   -0.454112   -0.119654 
C    -2.326732   0.01167     -0.371923 
C    -3.47541    -0.682691   0.077625  
O    0.354356    1.495111    1.078678  
N    1.370759    -1.196942   0.582557  
C    0.434837    -2.009824   0.946868  
Co   0.680283    0.357199    -0.496099 
C    1.524624    -0.298549   -2.304091 
C    0.248993    0.264766    -2.573002 
C    0.270202    1.620673    -2.119946 
C    1.609381    1.914497    -1.697837 
C    2.384162    0.740292    -1.787838 
C    1.922159    -1.706731   -2.629201 
C    -0.871075   -0.451802   -3.260602 
C    -0.82416    2.64291     -2.218143 
C    2.054858    3.281775    -1.282598 
C    3.855011    0.612988    -1.522699 
H    -0.963833   -1.48435    -2.914063 
H    -1.832204   0.04009     -3.10301  
H    -0.673466   -0.472504   -4.338086 
H    -1.7319     2.216837    -2.651007 
H    -1.077321   3.065512    -1.23945  
H    -0.51539    3.47074     -2.865055 
H    1.379075    3.720666    -0.541146 
H    3.069966    3.282492    -0.880848 
H    2.045804    3.943241    -2.156126 
H    -0.850053   2.251445    2.84099   
C    0.827361    2.227295    1.961116  
O    0.090344    2.635266    2.94452   
O    -2.176252   1.555978    2.380893  
H    1.161485    -2.423237   -2.301088 
H    -1.911151   0.965047    1.654659  
H    4.184707    1.272171    -0.714486 
H    -1.926681   -3.250239   1.675875  
H    4.133541    -0.40633    -1.244172 
H    4.417469    0.881643    -2.423482 
H    -2.483446   0.932877    -0.930971 
C    2.239721    2.727196    2.00127   
H    2.229454    3.819458    1.944807  
H    2.688289    2.456955    2.960969  
H    2.821384    2.318674    1.176185  
H    -4.180294   -2.381068   1.224151  
N    -4.711545   -0.107582   -0.187317 
H    -4.703258   0.878612    -0.428699 
C    -5.997199   -0.638085   -0.364067 
O    -6.896831   0.132072    -0.60487  
C    -6.198622   -2.131471   -0.28491  
H    -5.370278   -2.689717   -0.726359 
H    -6.320978   -2.445264   0.75631   
H    -7.124446   -2.353873   -0.814661 
H    2.868783    -1.974008   -2.155492 
H    2.042934    -1.825008   -3.711309 
C    -3.132864   0.901418    3.21219   
H    -3.39282    1.598421    4.008477  
H    -4.033271   0.663817    2.63761   
H    -2.72318    -0.015188   3.648663  
H    0.679217    -2.919076   1.501777  
C    2.72675     -1.541685   0.84622   
C    3.538013    -0.637043   1.529451  
C    3.248276    -2.762865   0.414571  
C    4.870699    -0.947241   1.773725  
H    3.106999    0.292111    1.884487  
C    4.586853    -3.064212   0.654347  
H    2.612299    -3.456745   -0.128275 
C    5.400655    -2.157503   1.328662  
H    5.49662     -0.245496   2.315377  
H    4.992669    -4.009643   0.309776  
H    6.443067    -2.394703   1.51191   
