73                                     
                                       
C    1.549321    2.637461    -1.205102 
C    0.187202    2.926941    -1.16996  
C    -0.714301   1.941589    -0.754799 
C    -0.280022   0.644654    -0.39346  
C    1.087235    0.401374    -0.391647 
C    2.009896    1.380258    -0.797913 
O    -1.789262   -0.597822   1.914874  
N    -2.80834    1.097095    -0.089578 
C    -2.151485   2.184839    -0.551279 
Co   -1.75463    -0.563609   -0.057025 
C    -1.802046   -1.372674   -1.977407 
C    -0.898446   -2.1696     -1.187233 
C    -1.631849   -2.692192   -0.102852 
C    -3.011941   -2.297762   -0.247106 
C    -3.11514    -1.540035   -1.435692 
C    -1.454817   -0.642433   -3.239533 
C    0.522281    -2.484313   -1.535201 
C    -1.097985   -3.538016   1.012382  
C    -4.104385   -2.67983    0.706422  
C    -4.354668   -0.957613   -2.042652 
H    1.004729    -1.668351   -2.07691  
H    1.125565    -2.711695   -0.652329 
H    0.536608    -3.369676   -2.180802 
H    -0.061336   -3.283767   1.253697  
H    -1.701793   -3.419318   1.916188  
H    -1.123269   -4.596976   0.733855  
H    -3.871094   -2.349761   1.724951  
H    -5.062727   -2.240327   0.419029  
H    -4.237241   -3.766097   0.729687  
H    0.196085    0.855762    2.350115  
C    -1.024232   -0.609324   2.889702  
O    0.063501    0.083989    2.997553  
O    0.770028    2.321512    2.04346   
H    -0.426626   -0.272049   -3.208628 
H    0.764452    2.574299    1.106535  
H    -4.539102   0.277615    0.669502  
H    -5.849741   2.40121     0.466564  
H    -4.696976   4.420227    -0.479614 
H    -2.2968     4.26427     -1.094246 
H    -5.202518   -0.979198   -1.354638 
C    -4.091717   1.185718    0.275124  
H    -0.15496    3.917466    -1.455566 
H    -4.203846   0.076609    -2.366377 
H    -4.631772   -1.541289   -2.92693  
C    -4.16347    3.482617    -0.362207 
C    -2.82303    3.397       -0.713222 
H    2.257888    3.393003    -1.533733 
H    1.496552    -0.552024   -0.069722 
C    -1.306645   -1.475328   4.082072  
H    -0.51357    -2.224721   4.166081  
H    -1.280932   -0.869676   4.990403  
H    -2.272617   -1.966397   3.976539  
C    -4.811707   2.364569    0.159114  
C    3.457191    1.096327    -0.78969  
H    4.114137    1.888458    -1.175383 
H    -2.111821   0.218883    -3.393228 
H    -1.555802   -1.298976   -4.110371 
C    2.12306     2.307703    2.502983  
H    2.090504    2.083278    3.569337  
H    2.710733    1.538943    1.987617  
H    2.585742    3.287822    2.357645  
N    3.90448     -0.017316   -0.364806 
C    5.297933    -0.235351   -0.32565  
C    5.755157    -1.526181   -0.607126 
C    6.214988    0.764284    0.019812  
C    7.116715    -1.800986   -0.595554 
H    5.026612    -2.293627   -0.848014 
C    7.575261    0.477085    0.049596  
H    5.858854    1.751414    0.300873  
C    8.030517    -0.800583   -0.267478 
H    7.466521    -2.800688   -0.832007 
H    8.281507    1.252034    0.32993   
H    9.092725    -1.020304   -0.243412 
