72                                     
                                       
C    -3.670106   -1.238807   -1.016816 
C    -2.44654    -1.859898   -1.272626 
C    -1.280637   -1.19797    -0.877708 
C    -1.258271   0.054991    -0.245546 
C    -2.503232   0.607419    0.066117  
C    -3.702154   -0.01707    -0.320723 
O    0.760006    0.441277    1.910534  
N    1.040053    -1.128891   -0.556409 
C    0.035272    -1.81001    -0.989145 
Co   0.543724    0.743198    -0.021679 
C    1.051403    1.623931    -1.836384 
C    0.026095    2.417925    -1.240979 
C    0.499109    2.849838    0.028726  
C    1.878343    2.441907    0.143187  
C    2.229246    1.719626    -1.007627 
C    0.96585     0.929604    -3.161954 
C    -1.277407   2.75005     -1.896627 
C    -0.203855   3.712164    1.034617  
C    2.745414    2.737948    1.326284  
C    3.595857    1.232019    -1.379821 
H    -1.70956    1.881828    -2.401337 
H    -2.005054   3.124976    -1.176554 
H    -1.104898   3.525857    -2.650696 
H    -1.190627   4.0084      0.676476  
H    -0.33764    3.188952    1.98665   
H    0.378407    4.620017    1.222727  
H    2.157172    2.723119    2.247597  
H    3.555995    2.010435    1.424288  
H    3.196323    3.731573    1.229326  
H    -0.893601   -1.410978   2.301983  
C    0.736596    -0.395139   2.820726  
O    -0.08722    -1.389829   2.915959  
O    -2.345681   -1.982994   1.951277  
H    -0.040051   0.535111    -3.336541 
H    -2.815676   -1.609628   1.189095  
H    4.225342    1.065813    -0.503243 
H    3.568588    0.302451    -1.953348 
H    4.081358    1.992411    -2.001944 
C    1.720791    -0.324828   3.951946  
H    1.182226    -0.167612   4.890137  
H    2.241388    -1.282923   4.032611  
H    2.431152    0.483728    3.786298  
C    2.353982    -1.666958   -0.603266 
C    3.22531     -1.378308   0.448932  
C    2.792077    -2.430635   -1.688267 
C    4.519414    -1.884721   0.432586  
H    2.884507    -0.745785   1.263896  
C    4.093455    -2.923695   -1.701864 
H    2.130835    -2.607179   -2.532051 
C    4.956662    -2.65818    -0.641465 
H    5.192418    -1.667396   1.25571   
H    4.435573    -3.507296   -2.550054 
H    5.970832    -3.042503   -0.657672 
H    0.165793    -2.826508   -1.367963 
H    1.670636    0.093899    -3.213888 
H    1.203256    1.616517    -3.981311 
C    -2.321243   -3.402771   1.838899  
H    -1.784767   -3.723902   0.938441  
H    -1.804796   -3.780204   2.722046  
H    -3.337709   -3.805086   1.818512  
H    -2.434347   -2.825685   -1.768044 
O    -2.482068   1.766775    0.772882  
C    -3.711837   2.381145    1.109454  
H    -3.454349   3.28133     1.66751   
H    -4.276633   2.657723    0.210868  
H    -4.322408   1.72686     1.741648  
H    -4.654985   0.438327    -0.085509 
O    -4.771858   -1.894771   -1.437192 
C    -6.038594   -1.301967   -1.213334 
H    -6.766708   -1.980147   -1.655076 
H    -6.242541   -1.196816   -0.141417 
H    -6.107786   -0.323111   -1.700589 
