72                                     
                                       
C    3.658868    1.201629    -0.493524 
C    2.501252    1.971088    -0.419946 
C    1.249253    1.332434    -0.344335 
C    1.111153    -0.067706   -0.34659  
C    2.284476    -0.814726   -0.366587 
C    3.548028    -0.215729   -0.423659 
O    -0.841015   -1.09779    1.620427  
N    -1.055906   1.332368    0.023208  
C    0.009331    2.045458    -0.130776 
Co   -0.744071   -0.612941   -0.29847  
C    -1.505226   -0.587606   -2.247251 
C    -0.454877   -1.545581   -2.187997 
C    -0.802882   -2.507352   -1.190357 
C    -2.141466   -2.210593   -0.752595 
C    -2.578324   -1.041103   -1.396643 
C    -1.532278   0.624272    -3.128525 
C    0.757772    -1.538386   -3.065077 
C    -0.005792   -3.709574   -0.774965 
C    -2.92077    -2.998381   0.254042  
C    -3.94878    -0.442525   -1.301954 
H    1.143982    -0.526946   -3.214903 
H    1.567394    -2.1463     -2.658391 
H    0.486961    -1.947175   -4.044907 
H    1.007044    -3.677231   -1.181973 
H    0.078305    -3.788215   0.314869  
H    -0.47601    -4.630288   -1.135274 
H    -2.280132   -3.706973   0.784684  
H    -3.398668   -2.346674   0.991961  
H    -3.708061   -3.572853   -0.245479 
H    1.47993     -0.848271   2.399868  
C    -0.244013   -1.784815   2.4638    
O    1.01487     -1.684227   2.746619  
O    2.219804    0.547834    2.521284  
H    -0.545879   1.09596     -3.183221 
H    2.519799    0.891264    1.66411   
H    -4.413033   -0.648188   -0.334312 
H    -3.942667   0.640981    -1.444061 
H    -4.585999   -0.878708   -2.079548 
C    -0.959584   -2.832948   3.265556  
H    -0.629917   -3.81978    2.923097  
H    -0.684157   -2.746963   4.318167  
H    -2.036328   -2.74281    3.135623  
C    -2.309575   1.942479    0.28583   
C    -3.125213   1.375132    1.267144  
C    -2.74111    3.057395    -0.436108 
C    -4.366544   1.939587    1.536604  
H    -2.769538   0.503587    1.810921  
C    -3.991079   3.608133    -0.165846 
H    -2.1145     3.467889    -1.223513 
C    -4.803846   3.052654    0.819278  
H    -4.998025   1.507779    2.30631   
H    -4.332181   4.467554    -0.733523 
H    -5.778225   3.482854    1.024577  
H    -0.030479   3.13409     -0.038441 
H    -2.243861   1.365583    -2.75428  
H    -1.831985   0.356912    -4.147353 
C    1.313829    1.481007    3.10407   
H    0.355512    1.497935    2.569597  
H    1.147488    1.160138    4.133184  
H    1.747332    2.485008    3.114375  
H    2.557929    3.054801    -0.440897 
O    4.607397    -1.040791   -0.467825 
C    5.789513    -0.725873   0.275561  
H    5.531734    -0.2129     1.207278  
H    6.252742    -1.68608    0.50169   
H    6.466924    -0.107424   -0.311975 
H    2.279568    -1.901724   -0.324622 
O    4.906886    1.6983      -0.641373 
C    5.052415    3.104357    -0.729074 
H    6.117372    3.287267    -0.86141  
H    4.501941    3.501875    -1.588946 
H    4.708239    3.59388     0.189433  
