72                                     
                                       
C    -3.343849   -1.846343   -1.464529 
C    -2.031045   -2.297794   -1.589624 
C    -0.98619    -1.504562   -1.114303 
C    -1.203264   -0.243565   -0.504308 
C    -2.513217   0.162106    -0.337165 
C    -3.5934     -0.613079   -0.842979 
O    0.513546    0.414331    1.850618  
N    1.249874    -1.140747   -0.535887 
C    0.390775    -1.942773   -1.070368 
Co   0.477184    0.658255    -0.103338 
C    1.081011    1.573815    -1.869526 
C    -0.095831   2.240587    -1.413756 
C    0.172149    2.740031    -0.108261 
C    1.568494    2.508829    0.169722  
C    2.134468    1.820527    -0.91405  
C    1.2365      0.860157    -3.178403 
C    -1.34946    2.403382    -2.214318 
C    -0.746247   3.516392    0.787827  
C    2.262135    2.921273    1.429972  
C    3.584762    1.498612    -1.10511  
H    -1.549657   1.52228     -2.829565 
H    -2.217751   2.584184    -1.580388 
H    -1.223161   3.25871     -2.887716 
H    -1.747799   3.582771    0.362908  
H    -0.832414   3.043096    1.772714  
H    -0.35978    4.529895    0.937826  
H    1.559889    2.954555    2.26679   
H    3.071152    2.232087    1.688597  
H    2.695439    3.920812    1.315546  
H    -1.213639   -1.3193     2.343223  
C    0.156024    -0.016698   2.949978  
O    -0.748473   -0.923772   3.15118   
O    -2.18914    -2.365915   1.636596  
H    0.323517    0.318505    -3.444655 
H    -2.558753   -2.15561    0.764689  
H    4.110277    1.398756    -0.153008 
H    3.739928    0.576929    -1.670467 
H    4.054626    2.31587     -1.664007 
C    0.755307    0.530344    4.213104  
H    0.11159     1.340102    4.573237  
H    0.793216    -0.238783   4.984574  
H    1.746451    0.935752    4.011363  
C    2.615272    -1.511734   -0.422924 
C    3.302636    -1.15649    0.73947   
C    3.27849     -2.176564   -1.457402 
C    4.645096    -1.490169   0.874986  
H    2.773585    -0.623385   1.524996  
C    4.625617    -2.497534   -1.316613 
H    2.752243    -2.408157   -2.379499 
C    5.310188    -2.158461   -0.15207  
H    5.17671     -1.223433   1.782729  
H    5.142703    -3.00384    -2.124987 
H    6.360849    -2.407184   -0.048119 
H    0.692201    -2.934175   -1.418312 
H    2.057659    0.138281    -3.135696 
H    1.454718    1.566636    -3.986255 
C    -1.707362   -3.705381   1.631253  
H    -0.913105   -3.841601   0.887788  
H    -1.307198   -3.902031   2.626401  
H    -2.521487   -4.406847   1.429341  
H    -1.834004   -3.264613   -2.045893 
O    -4.814202   -0.08461    -0.670805 
C    -5.935097   -0.791826   -1.182    
H    -6.039864   -1.765744   -0.692033 
H    -6.802255   -0.173682   -0.957311 
H    -5.849057   -0.926741   -2.264944 
H    -4.16076    -2.445961   -1.846779 
O    -2.801892   1.35451     0.271828  
C    -3.342024   1.221102    1.582647  
H    -3.492728   2.233835    1.958722  
H    -4.298567   0.691701    1.562871  
H    -2.638202   0.687247    2.23382   
