78                                     
                                       
C    -3.650718   0.124178    -0.096853 
C    -2.845133   -1.019158   -0.385744 
C    -1.425511   -0.925489   -0.298415 
C    -0.796011   0.345186    -0.034807 
C    -1.591954   1.399975    0.302245  
C    -3.029572   1.337145    0.301141  
O    1.365605    1.45582     1.422208  
N    1.546017    -1.235078   0.127082  
C    -0.682253   -2.126028   -0.397217 
Co   1.079937    0.63965     -0.353322 
C    1.288726    0.49152     -2.433969 
C    0.517034    1.663115    -2.161663 
C    1.296381    2.502656    -1.327602 
C    2.613882    1.916253    -1.207746 
C    2.619576    0.710602    -1.923398 
C    0.855382    -0.673485   -3.272793 
C    -0.858562   1.928658    -2.687055 
C    0.917404    3.831328    -0.746876 
C    3.74493     2.528078    -0.441678 
C    3.798412    -0.171725   -2.194768 
H    -1.478943   1.028185    -2.678441 
H    -1.37844    2.693281    -2.106257 
H    -0.783008   2.279832    -3.722096 
H    -0.144387   4.046183    -0.887324 
H    1.136906    3.869875    0.325667  
H    1.484367    4.634328    -1.229577 
H    3.414193    2.837178    0.555582  
H    4.57355     1.825382    -0.323892 
H    4.123576    3.416667    -0.958081 
H    -0.485957   0.172755    2.564526  
C    1.049466    1.429018    2.618234  
O    0.111351    0.713005    3.153371  
O    -1.945257   -0.772111   2.653291  
H    -0.229246   -0.806254   -3.236425 
H    -2.704917   -0.422468   2.163127  
H    4.526934    -0.166929   -1.379963 
H    3.496894    -1.206519   -2.370629 
H    4.300455    0.183206    -3.101932 
H    -3.168541   -4.34144    -1.150446 
C    1.816626    2.244013    3.617199  
H    1.151956    2.620212    4.395347  
H    2.554404    1.589595    4.094287  
H    2.337078    3.059347    3.116226  
C    -4.910436   -2.298678   -0.818817 
C    -5.668483   -1.204184   -0.559941 
C    0.719042    -2.211847   -0.047311 
C    -5.067914   0.042719    -0.169411 
C    -1.325908   -3.341065   -0.69488  
C    -2.68994    -3.400349   -0.897894 
H    -1.146538   2.369403    0.533098  
C    -3.477682   -2.251767   -0.716855 
C    -5.831803   1.170029    0.151014  
C    -5.217808   2.356293    0.544194  
C    -3.832412   2.440918    0.620893  
H    -3.358077   3.370584    0.923945  
H    -5.374734   -3.240274   -1.096424 
H    -6.7513     -1.254915   -0.631149 
H    -6.914862   1.109269    0.094949  
H    -5.825497   3.220241    0.791764  
H    -0.733773   -4.250489   -0.758658 
H    1.313847    -1.605372   -2.926549 
H    1.14429     -0.531352   -4.319806 
C    -2.117873   -2.16861    2.853513  
H    -1.215628   -2.529821   3.349305  
H    -2.9776     -2.367562   3.500521  
H    -2.242933   -2.698851   1.90224   
H    1.086602    -3.227285   0.116666  
C    2.904829    -1.561173   0.44927   
C    3.653661    -0.675681   1.227787  
C    3.52035     -2.708541   -0.064569 
C    4.986309    -0.954028   1.516414  
H    3.199309    0.234196    1.599951  
C    4.852219    -2.979466   0.227157  
H    2.979835    -3.367092   -0.737726 
C    5.590927    -2.106619   1.021979  
H    5.554724    -0.260937   2.128459  
H    5.318337    -3.866964   -0.187909 
H    6.632034    -2.316675   1.242123  
