59                                     
                                       
C    -3.31268    0.128142    2.46903   
C    -2.892812   1.134461    1.603232  
C    -1.707928   0.963122    0.879817  
C    -0.889845   -0.175619   1.036358  
C    -1.355053   -1.181055   1.884816  
C    -2.554751   -1.039987   2.58816   
O    0.391976    -1.329408   -1.429998 
N    -0.184142   1.43276     -0.854144 
C    -1.300447   1.851961    -0.214125 
Co   0.762512    -0.050335   0.029075  
C    1.920961    0.918371    1.453034  
C    1.94306     -0.485185   1.759693  
C    2.463227    -1.158353   0.634115  
C    2.88692     -0.169084   -0.332896 
C    2.600895    1.101373    0.201364  
C    1.444007    2.010582    2.361965  
C    1.561071    -1.093466   3.070923  
C    2.621023    -2.638514   0.461445  
C    3.52298     -0.49641    -1.649351 
C    2.913924    2.43773     -0.397564 
H    0.698668    -0.597528   3.52106   
H    1.338956    -2.159354   2.979801  
H    2.406278    -0.992575   3.76093   
H    1.836426    -3.19413    0.983866  
H    2.586265    -2.911324   -0.597031 
H    3.585725    -2.972864   0.857482  
H    2.88155     -1.160802   -2.237708 
H    3.711684    0.401611    -2.241684 
H    4.482191    -1.00154    -1.497947 
H    -1.959      -1.850473   -0.885396 
C    -0.232324   -2.371339   -1.671161 
O    -1.432506   -2.634071   -1.257771 
O    -3.27086    -0.943534   -0.763861 
H    2.258247    2.374321    2.997791  
H    -3.474115   -0.697625   0.153731  
H    -1.941218   4.463051    -2.255044 
H    -2.858018   3.358771    -0.205853 
H    3.173889    2.370578    -1.456066 
C    0.201383    2.067188    -1.965393 
H    0.637632    1.658482    3.010711  
H    1.077613    1.668142    -2.470558 
C    -1.463288   3.582305    -1.834512 
C    -1.968567   2.977428    -0.691961 
H    -4.229845   0.245451    3.036601  
H    -0.784101   -2.098391   2.011208  
C    0.377505    -3.4688     -2.492173 
H    0.514836    -4.347391   -1.854171 
H    -0.305317   -3.752576   -3.295624 
H    1.33648     -3.152727   -2.899434 
H    -3.500527   2.026547    1.479662  
H    2.082428    3.141014    -0.291822 
H    3.7727      2.872172    0.125482  
H    1.062588    2.863599    1.792018  
C    -4.379833   -1.647478   -1.328132 
H    -5.261696   -1.003087   -1.367339 
H    -4.093007   -1.922463   -2.3431   
H    -4.607457   -2.555202   -0.761021 
H    -2.896733   -1.838706   3.239637  
N    -0.391055   3.123803    -2.491896 
