60                                     
                                       
C    -3.567755   0.698543    -1.364348 
C    -2.674067   -0.187764   -1.959202 
C    -1.407657   -0.305197   -1.396324 
C    -0.95719    0.443906    -0.298107 
C    -1.889924   1.288299    0.290567  
C    -3.188008   1.417204    -0.22858  
O    0.774077    -0.850207   1.750478  
N    0.678395    -1.346497   -1.144061 
N    -0.470695   -1.272776   -1.847211 
Co   0.924569    0.185509    0.081618  
C    1.953374    1.369212    -1.277481 
C    1.256094    2.240688    -0.391059 
C    1.684906    1.942306    0.933599  
C    2.771924    0.998261    0.840397  
C    2.942538    0.648901    -0.509137 
C    1.76631     1.289665    -2.762936 
C    0.270371    3.286187    -0.807753 
C    1.208681    2.566535    2.211068  
C    3.535669    0.47499     2.014803  
C    3.97632     -0.277029   -1.073752 
H    -0.366102   2.945404    -1.628065 
H    -0.377246   3.594437    0.014953  
H    0.820749    4.169417    -1.150198 
H    0.292438    3.141939    2.061641  
H    1.007575    1.804743    2.970654  
H    1.965812    3.247554    2.613326  
H    2.875855    0.329744    2.873849  
H    4.024988    -0.476149   1.790285  
H    4.311999    1.19124     2.304638  
H    -1.283835   -2.147492   1.280669  
C    0.411474    -1.915542   2.262967  
O    -0.633384   -2.598658   1.911424  
O    -2.740331   -1.897918   0.653764  
H    0.743788    1.555792    -3.045686 
H    -2.995006   -0.963884   0.580574  
H    4.224399    -1.087336   -0.382014 
C    1.364384    -2.369454   -1.645101 
H    -2.975537   -0.780891   -2.816277 
H    3.649142    -0.716016   -2.019435 
H    4.89996     0.276162    -1.274119 
H    -4.566996   0.819121    -1.774579 
H    -1.642573   1.883101    1.16785   
C    1.16773     -2.512966   3.412203  
H    0.651587    -2.24814    4.340532  
H    1.17072     -3.600958   3.333408  
H    2.182646    -2.119524   3.443201  
H    0.936234    -3.821639   -3.286308 
H    2.331896    -2.626681   -1.237837 
C    0.646835    -2.970792   -2.690158 
C    -0.522406   -2.24205    -2.784284 
H    -1.376461   -2.351196   -3.435137 
C    -4.143104   2.353692    0.425655  
O    -3.864158   2.997581    1.407257  
H    -5.141304   2.429659    -0.049912 
H    1.963311    0.279501    -3.135608 
H    2.445646    1.975548    -3.279627 
C    -3.711469   -2.60202    1.432548  
H    -3.370165   -3.635109   1.497639  
H    -3.794518   -2.186005   2.44111   
H    -4.686089   -2.576018   0.938793  
