61                                     
                                       
C    -3.256942   -1.272648   -1.829342 
C    -2.969892   -1.427904   -0.467074 
C    -1.726717   -0.942793   -0.039283 
C    -0.77156    -0.385278   -0.902331 
C    -1.12527    -0.221232   -2.238012 
C    -2.369066   -0.652613   -2.704474 
O    0.85832     1.956553    -0.139941 
N    -0.168053   -0.213143   1.554428  
N    -1.336321   -0.858722   1.338726  
Co   0.919989    -0.006593   -0.061012 
C    1.896727    -1.831468   0.128658  
C    1.811163    -1.530986   -1.261896 
C    2.450817    -0.276601   -1.471755 
C    3.069434    0.114351    -0.228845 
C    2.740547    -0.837512   0.749945  
C    1.296947    -3.025265   0.809409  
C    1.166417    -2.403334   -2.292483 
C    2.592732    0.476122    -2.761114 
C    3.886558    1.354384    -0.049591 
C    3.201504    -0.855903   2.175593  
H    0.242976    -2.856945   -1.923692 
H    0.925121    -1.851727   -3.202651 
H    1.859729    -3.208578   -2.558872 
H    1.961874    0.051675    -3.54528  
H    2.316953    1.528365    -2.637248 
H    3.627977    0.442795    -3.116089 
H    3.471221    2.180379    -0.632607 
H    3.933844    1.66253     0.997837  
H    4.911526    1.181514    -0.395037 
H    -1.602363   2.234134    0.210167  
C    0.240643    2.968908    0.207237  
O    -1.0327     3.033513    0.447425  
O    -3.062854   1.599381    -0.138196 
H    0.389963    -3.35557    0.294637  
H    -3.069639   1.04035     -0.932984 
H    3.331474    0.15247     2.57932   
C    -0.009526   -0.118254   2.870967  
H    2.503345    -1.398544   2.817612  
H    4.169516    -1.363284   2.245633  
H    -4.213253   -1.632022   -2.197934 
H    -0.42411    0.239084    -2.93126  
C    0.946762    4.283522    0.361006  
H    0.702143    4.914345    -0.499023 
H    0.587751    4.79439     1.256107  
H    2.023863    4.131773    0.405626  
H    -1.259192   -0.789358   4.593027  
H    0.867152    0.366002    3.277217  
C    -1.091595   -0.710234   3.530646  
C    -1.916434   -1.167891   2.520689  
H    -2.861582   -1.676989   2.57868   
H    1.027803    -2.798603   1.846103  
H    2.000084    -3.864526   0.821614  
C    -3.989269   2.674782    -0.303238 
H    -5.003457   2.288783    -0.435129 
H    -3.947621   3.267614    0.610502  
H    -3.720999   3.308704    -1.154163 
H    -2.640349   -0.524148   -3.747705 
C    -4.01364    -2.033367   0.434421  
H    -3.625622   -2.884717   1.002479  
H    -4.405419   -1.291749   1.140094  
H    -4.853951   -2.395376   -0.160818 
