67                                     
                                       
C    -3.652975   -1.668244   -0.881418 
C    -2.343798   -1.983717   -1.234077 
C    -1.300035   -1.13797    -0.861582 
C    -1.520436   0.066292    -0.141117 
C    -2.825354   0.344821    0.228309  
C    -3.895368   -0.499717   -0.141424 
O    0.649709    0.69505     1.960941  
N    0.96703     -0.584965   -0.515802 
C    0.10804     -1.455879   -0.995256 
Co   0.125008    1.099103    0.089739  
C    -0.053648   2.243923    -1.624508 
C    -0.832228   2.887496    -0.599931 
C    0.03669     3.186651    0.469142  
C    1.385224    2.857132    0.061787  
C    1.32739     2.330213    -1.24209  
C    -0.564495   1.748008    -2.943382 
C    -2.273831   3.264988    -0.718687 
C    -0.312551   3.794655    1.792359  
C    2.589997    3.113508    0.913965  
C    2.462056    1.892856    -2.116452 
H    -2.84758    2.53217     -1.288845 
H    -2.750446   3.396287    0.2552    
H    -2.334324   4.223875    -1.245866 
H    -1.383892   3.731631    1.994973  
H    0.215218    3.284572    2.603405  
H    -0.026754   4.851808    1.814623  
H    2.526486    2.560721    1.857905  
H    3.515238    2.832743    0.405379  
H    2.660017    4.177717    1.161216  
H    -0.355978   -1.567409   2.066501  
C    1.082063    -0.308484   2.547799  
O    0.585973    -1.50151    2.442258  
O    -1.814059   -2.180109   1.986243  
H    -1.595379   1.393856    -2.858943 
H    -2.430994   -1.753012   1.371198  
H    3.417234    1.898027    -1.58873  
C    2.265256    -1.069198   -0.496248 
H    -2.148656   -2.900913   -1.786054 
H    2.303652    0.886649    -2.516655 
H    2.542786    2.576556    -2.968262 
H    -4.46338    -2.322483   -1.177681 
H    -3.084497   1.222653    0.813088  
C    2.271076    -0.229716   3.457979  
H    2.008665    -0.631349   4.439278  
H    3.063953    -0.860588   3.044269  
H    2.618364    0.798106    3.54756   
C    2.390946    -2.352892   -1.051478 
C    3.3803      -0.42348    0.047361  
C    3.625247    -2.99711    -1.116871 
C    4.605356    -1.069083   -0.0064   
H    5.484004    -0.586639   0.408564  
C    4.728442    -2.339384   -0.591027 
H    3.269606    0.557867    0.500658  
H    5.69958     -2.820921   -0.624312 
H    3.719446    -3.985315   -1.553712 
H    0.043219    0.916268    -3.313004 
H    -0.537272   2.541874    -3.697633 
C    -1.778124   -3.58211    1.736558  
H    -1.392959   -3.800189   0.733439  
H    -1.1114     -4.017315   2.481555  
H    -2.774602   -4.017662   1.849266  
O    -5.111154   -0.101554   0.264623  
C    -6.234107   -0.901979   -0.071698 
H    -6.146886   -1.902251   0.366204  
H    -7.098635   -0.393146   0.35054   
H    -6.3474     -0.980878   -1.157961 
S    0.818038    -2.936801   -1.553857 
