73                                     
                                       
C    3.51677     0.611413    -0.515604 
C    2.536989    1.587862    -0.364646 
C    1.193566    1.18993     -0.28402  
C    0.763785    -0.140681   -0.350035 
C    1.770394    -1.096379   -0.500569 
C    3.11896     -0.749613   -0.59244  
O    -1.342851   -0.531028   1.722744  
N    -1.114737   1.694665    -0.011327 
C    0.107599    2.111769    -0.013969 
Co   -1.183863   -0.307968   -0.236987 
C    -1.208468   -1.225422   -2.142478 
C    -1.401385   -2.215322   -1.116036 
C    -2.628952   -1.912316   -0.465432 
C    -3.173144   -0.731151   -1.021452 
C    -2.285981   -0.305752   -2.066722 
C    -0.137463   -1.191556   -3.188962 
C    -0.598427   -3.462034   -0.875192 
C    -3.243771   -2.702468   0.64551   
C    -4.523526   -0.18248    -0.658541 
C    -2.456954   0.860729    -2.992791 
H    0.233644    -3.541999   -1.577327 
H    -0.1903     -3.507621   0.140664  
H    -1.229361   -4.345028   -1.018716 
H    -2.498064   -3.305343   1.171951  
H    -3.744305   -2.052345   1.368162  
H    -3.993855   -3.390922   0.239626  
H    -4.555003   0.228181    0.356399  
H    -4.838716   0.599201    -1.35234  
H    -5.271964   -0.979867   -0.709674 
H    1.022783    -1.058018   2.233678  
C    -0.887595   -1.300362   2.581043  
O    0.346664    -1.698962   2.641766  
O    2.256638    -0.06265    2.424344  
H    0.723174    -1.802231   -2.911435 
H    2.4486      0.51831     1.67107   
H    -1.137365   4.694892    -0.266494 
H    -3.368499   1.417956    -2.770686 
C    -1.968921   2.791193    0.506185  
H    2.79259     2.638601    -0.280532 
H    -1.612623   1.554827    -2.926011 
H    -2.519735   0.510581    -4.028227 
C    -0.964248   3.976011    0.538957  
H    1.561404    -2.160727   -0.537942 
C    -1.755364   -1.847299   3.675323  
H    -1.688394   -2.938748   3.67717   
H    -1.369372   -1.499754   4.63741   
H    -2.787526   -1.528619   3.545482  
H    -0.935214   4.495196    1.498454  
O    0.330681    3.376509    0.318952  
H    0.220821    -0.17239    -3.360038 
H    -0.537772   -1.573215   -4.13488  
C    3.447301    -0.770176   2.778345  
H    3.169524    -1.477252   3.560854  
H    3.858333    -1.315344   1.921981  
H    4.197088    -0.078579   3.172501  
C    -3.13111    3.108793    -0.424675 
H    -3.828105   2.271113    -0.474503 
H    -3.678328   3.979693    -0.049507 
H    -2.772117   3.334524    -1.432482 
C    -2.462478   2.424605    1.905304  
H    -3.065058   3.239631    2.318535  
H    -3.075437   1.519376    1.868965  
H    -1.617843   2.23384     2.574479  
O    4.00945     -1.764483   -0.654479 
C    5.095367    -1.689381   -1.584603 
H    5.964149    -1.212774   -1.131459 
H    5.32612     -2.721498   -1.849199 
H    4.798185    -1.137275   -2.480808 
O    4.847526    0.850463    -0.54832  
C    5.273653    2.200225    -0.479324 
H    6.360202    2.175108    -0.542741 
H    4.868745    2.783397    -1.313666 
H    4.972607    2.657998    0.470088  
