69                                     
                                       
C    3.566276    0.757722    -1.408227 
C    2.454061    1.588695    -1.529432 
C    1.217433    1.143024    -1.066727 
C    1.018233    -0.140987   -0.50541  
C    2.141582    -0.938682   -0.369827 
C    3.409563    -0.50037    -0.805737 
O    -0.887258   -0.273434   1.86006   
N    -1.034976   1.512526    -0.404668 
C    0.061431    1.998379    -0.891717 
Co   -0.87861    -0.456741   -0.106337 
C    -1.217834   -1.475772   -1.898599 
C    -0.83446    -2.441559   -0.89895  
C    -1.789481   -2.380888   0.13557   
C    -2.802064   -1.425195   -0.223776 
C    -2.473255   -0.924997   -1.508405 
C    -0.517593   -1.221481   -3.198835 
C    0.276655    -3.435841   -1.020224 
C    -1.781312   -3.177823   1.402842  
C    -4.007098   -1.123901   0.61733   
C    -3.256356   0.02367     -2.36033  
H    1.084687    -3.069932   -1.655997 
H    0.697498    -3.708627   -0.048482 
H    -0.118344   -4.351501   -1.474313 
H    -0.763195   -3.414751   1.726477  
H    -2.283904   -2.636191   2.208341  
H    -2.310249   -4.125881   1.256482  
H    -3.722599   -0.673137   1.575457  
H    -4.690533   -0.439759   0.109992  
H    -4.562752   -2.041635   0.834742  
H    1.510191    0.305946    2.160084  
C    -0.16825    -0.470291   2.848539  
O    1.10944     -0.259029   2.89921   
O    2.568881    1.446531    1.710082  
H    0.562288    -1.360148   -3.100341 
H    2.667079    1.576295    0.753375  
H    -1.726939   3.982621    -1.67472  
H    -4.169107   0.357361    -1.864988 
C    -1.832061   2.667426    0.091331  
H    2.556769    2.585884    -1.948359 
H    -2.665067   0.905084    -2.627468 
H    -3.541119   -0.478688   -3.290708 
C    -1.198627   3.807763    -0.731598 
H    4.532541    1.094252    -1.762839 
H    2.107316    -1.920914   0.092717  
C    -0.74498    -1.003944   4.12668   
H    -0.402667   -2.035293   4.259889  
H    -0.375872   -0.42261    4.973417  
H    -1.832982   -0.983369   4.087553  
H    -1.084675   4.742877    -0.1829   
O    0.123039    3.314711    -1.052594 
H    -0.689781   -0.198212   -3.54543  
H    -0.881259   -1.903745   -3.974956 
C    3.834344    1.061001    2.247725  
H    3.695758    0.933335    3.321651  
H    4.179534    0.115279    1.81288   
H    4.57869     1.843123    2.074085  
C    -3.325215   2.537088    -0.156409 
H    -3.707471   1.629487    0.320448  
H    -3.849176   3.391857    0.281831  
H    -3.556469   2.503375    -1.222775 
C    -1.545441   2.836913    1.586953  
H    -2.026063   3.746628    1.960198  
H    -1.938025   1.982222    2.14341   
H    -0.467508   2.908374    1.771303  
O    4.422044    -1.356187   -0.578085 
C    5.726986    -0.985324   -0.995226 
H    6.057359    -0.074968   -0.48218  
H    6.374917    -1.815498   -0.719866 
H    5.764038    -0.833289   -2.078874 
