60                                     
                                       
C    3.171235    2.252079    -1.042371 
C    1.957318    2.7902      -0.64333  
C    0.879228    1.943685    -0.360399 
C    0.992108    0.545602    -0.47211  
C    2.232945    0.037951    -0.863307 
C    3.325853    0.865308    -1.160328 
O    1.625445    -1.737641   1.48551   
H    1.862772    3.867861    -0.545551 
C    -0.41806    2.42645     0.135113  
Co   -0.654246   -0.39337    -0.015552 
C    -0.996434   -1.078266   -1.973622 
C    -0.41831    -2.146259   -1.19733  
C    -1.312946   -2.435951   -0.138967 
C    -2.438047   -1.563548   -0.232302 
C    -2.250344   -0.748435   -1.390824 
C    -0.432952   -0.491315   -3.231793 
C    0.807626    -2.937488   -1.539219 
C    -1.118719   -3.469389   0.92665   
C    -3.632622   -1.62377    0.675672  
C    -3.187177   0.296355    -1.918688 
H    1.394941    -2.446577   -2.317823 
H    1.447874    -3.092205   -0.665907 
H    0.516145    -3.92219    -1.919865 
H    -0.072498   -3.77348    1.001329  
H    -1.444694   -3.100869   1.904198  
H    -1.714675   -4.35918    0.695134  
H    -3.355385   -1.498755   1.728452  
H    -4.372589   -0.860311   0.423301  
H    -4.130637   -2.594561   0.583735  
H    2.593915    -1.694962   1.712279  
H    3.897193    -0.11619    0.986039  
O    4.012168    -0.764658   1.702818  
H    4.948683    -1.007134   1.717381  
H    0.659462    -0.501143   -3.222496 
H    -0.775469   -1.060375   -4.102771 
H    -3.120078   0.86916     1.179921  
H    -3.861388   3.20307     1.65233   
H    -2.297162   5.085329    1.082746  
H    -0.069665   4.551622    0.129314  
H    -3.946892   0.573169    -1.184291 
C    -2.48297    1.717259    0.951713  
O    -0.172546   -0.542577   1.894012  
C    0.911982    -0.980074   2.284485  
C    -2.888191   3.015518    1.215096  
C    -2.013458   4.053809    0.900881  
C    -0.769167   3.758488    0.364621  
H    4.007732    2.908495    -1.265583 
H    2.378132    -1.03713    -0.939786 
C    1.432472    -0.695556   3.658846  
H    1.524281    -1.634659   4.212492  
H    2.431662    -0.256143   3.579814  
H    0.758041    -0.019102   4.179816  
N    -1.292183   1.432554    0.411363  
H    -2.654536   1.207057    -2.20848  
H    -3.705002   -0.083064   -2.805671 
H    -0.750885   0.546477    -3.362395 
C    4.63453     0.273883    -1.626242 
H    4.744409    -0.764725   -1.298033 
H    4.690228    0.273454    -2.719984 
H    5.490055    0.849989    -1.261446 
