61                                     
                                       
C    3.07587     2.194753    -0.665687 
C    1.824909    2.751696    -0.416894 
C    0.703356    1.937291    -0.25674  
C    0.790082    0.535984    -0.402838 
C    2.039211    -0.003015   -0.669421 
C    3.177151    0.80704     -0.756054 
O    1.35077     -1.937648   1.393998  
H    1.751463    3.830243    -0.310677 
C    -0.604081   2.431605    0.190453  
Co   -0.875603   -0.382432   -0.007238 
C    -1.246742   -0.963835   -1.988975 
C    -0.662893   -2.073355   -1.277288 
C    -1.544681   -2.414686   -0.223864 
C    -2.6677     -1.532863   -0.257597 
C    -2.494617   -0.664479   -1.377829 
C    -0.691192   -0.31226    -3.218779 
C    0.560585    -2.835464   -1.684197 
C    -1.354605   -3.502353   0.787317  
C    -3.84681    -1.632806   0.666815  
C    -3.437847   0.401509    -1.849303 
H    1.183108    -2.254289   -2.36787  
H    1.166249    -3.12011    -0.819603 
H    0.267106    -3.752917   -2.205653 
H    -0.337329   -3.896368   0.765174  
H    -1.564228   -3.144941   1.800667  
H    -2.046471   -4.326034   0.579461  
H    -3.549842   -1.558463   1.71891   
H    -4.587915   -0.855491   0.464982  
H    -4.350564   -2.596576   0.538177  
H    2.347921    -1.973482   1.52466   
H    4.167767    -1.081928   0.613462  
O    3.922996    -1.584564   1.417747  
H    4.620026    -2.240518   1.558126  
H    0.40108     -0.290577   -3.198717 
H    -1.008468   -0.856374   -4.114951 
H    -3.323572   0.890357    1.21646   
H    -4.060149   3.230501    1.669746  
H    -2.488334   5.103693    1.090293  
H    -0.252705   4.556213    0.163277  
H    -4.210273   0.621476    -1.109224 
C    -2.68143    1.735461    0.989941  
O    -0.321063   -0.59378    1.882248  
C    0.769665    -1.082707   2.194889  
C    -3.084508   3.036351    1.241052  
C    -2.204581   4.069765    0.922541  
C    -0.956022   3.767162    0.401842  
H    3.94421     2.836169    -0.753143 
H    2.1865      -1.072626   -0.779715 
C    1.450243    -0.739433   3.483708  
H    1.541694    -1.638775   4.099604  
H    2.461951    -0.382804   3.264519  
H    0.884717    0.022923    4.015424  
N    -1.486591   1.442637    0.462297  
H    -2.914371   1.335506    -2.075046 
H    -3.939644   0.071787    -2.764922 
H    -1.0399     0.719673    -3.312176 
O    4.358911    0.125777    -0.87663  
C    5.544326    0.886092    -1.076144 
H    6.348267    0.163846    -1.210942 
H    5.454345    1.505071    -1.973632 
H    5.755744    1.519013    -0.207932 
