57                                     
                                       
C    -3.056683   2.337629    1.658544  
C    -1.907851   2.843564    1.066588  
C    -0.919391   1.965686    0.606225  
C    -1.049419   0.568481    0.719865  
C    -2.223902   0.08798     1.307031  
C    -3.21361    0.955825    1.779205  
O    -2.063032   -1.615603   -1.174819 
H    -1.790494   3.9186      0.966946  
C    0.303845    2.422139    -0.074338 
Co   0.478378    -0.406887   0.000493  
C    1.087251    -1.159142   1.867554  
C    0.364133    -2.185384   1.159661  
C    1.079984    -2.46866    -0.028572 
C    2.234555    -1.632765   -0.08344  
C    2.249281    -0.847282   1.110588  
C    0.739028    -0.596432   3.211851  
C    -0.820632   -2.954029   1.661206  
C    0.690326    -3.461431   -1.079128 
C    3.276995    -1.700355   -1.1624   
C    3.288213    0.154618    1.516468  
H    -1.255474   -2.484987   2.546149  
H    -1.598201   -3.046454   0.897531  
H    -0.509704   -3.964748   1.946134  
H    -0.371928   -3.708638   -1.019217 
H    0.903685    -3.083285   -2.083519 
H    1.261295    -4.387212   -0.94701  
H    2.850536    -1.530151   -2.157401 
H    4.074677    -0.970824   -1.002138 
H    3.746302    -2.689497   -1.174676 
H    -3.052211   -1.521986   -1.259787 
H    -4.204208   0.025465    -0.293858 
O    -4.41319    -0.557919   -1.044826 
H    -5.341788   -0.81393    -0.95256  
H    -0.341972   -0.572562   3.367725  
H    1.18782     -1.204257   4.00488   
H    2.784263    0.812894    -1.513412 
H    3.510622    3.133373    -2.066    
H    2.093172    5.046105    -1.262059 
H    0.013864    4.554829    -0.001494 
H    3.936807    0.431578    0.682398  
C    2.209112    1.673002    -1.187344 
O    -0.28714    -0.491499   -1.817233 
C    -1.436467   -0.870938   -2.053799 
C    2.605827    2.964432    -1.494775 
C    1.812601    4.019602    -1.049616 
C    0.651267    3.747578    -0.341566 
H    -3.82123    3.012165    2.029281  
H    -2.383985   -0.981734   1.405947  
H    -4.100175   0.553422    2.264596  
C    -2.135416   -0.526386   -3.331994 
H    -2.367137   -1.445433   -3.878177 
H    -3.082352   -0.029738   -3.098533 
H    -1.505089   0.120548    -3.938638 
N    1.101908    1.410627    -0.483142 
H    2.834983    1.070823    1.906499  
H    3.921639    -0.26518    2.304732  
H    1.109356    0.426171    3.322486  
