55                                     
                                       
C    -3.568216   1.515462    1.527393  
C    -2.683859   2.272723    0.767494  
C    -1.477544   1.690244    0.389814  
C    -1.092065   0.385345    0.717421  
C    -2.013605   -0.342664   1.474353  
C    -3.23269    0.209004    1.884686  
O    -1.454573   -2.201302   -0.851033 
H    -2.936763   3.289745    0.484772  
N    -0.527717   2.39819     -0.400212 
Co   0.646968    -0.119186   -0.032361 
C    1.221319    -1.714155   1.22877   
C    1.930457    -1.823469   0.004684  
C    2.696156    -0.638085   -0.192083 
C    2.498477    0.193705    0.958042  
C    1.577748    -0.451608   1.824678  
C    0.397278    -2.797648   1.856458  
C    1.848344    -2.968659   -0.955448 
C    3.592697    -0.381432   -1.368774 
C    3.123518    1.531133    1.217061  
C    1.123448    0.056129    3.158625  
H    -0.355149   -3.186506   1.165028  
H    1.043576    -3.629977   2.154333  
H    0.916682    -3.525898   -0.829846 
H    1.914094    -2.625955   -1.991905 
H    2.680084    -3.65996    -0.780556 
H    3.05348     -0.472539   -2.317785 
H    4.037745    0.615395    -1.324715 
H    4.416829    -1.101758   -1.387567 
H    3.555161    1.961626    0.311304  
H    -2.425321   -2.430691   -0.859798 
H    -3.97247    -1.230767   0.049637  
O    -4.011153   -1.92844    -0.6286   
H    -4.797257   -2.460372   -0.440177 
H    1.792317    -0.306173   3.946683  
H    0.990805    4.598096    -2.244759 
H    -1.331085   4.319818    -0.806856 
H    2.395895    2.245997    1.611359  
C    1.311811    2.518176    -1.501124 
C    0.656529    3.745176    -1.675787 
C    -0.517662   3.626615    -0.956881 
H    -4.509799   1.948907    1.847116  
O    -0.162703   -0.667494   -1.751117 
C    -1.142004   -1.410278   -1.849287 
H    -1.786332   -1.36826    1.754145  
H    -3.910141   -0.37205    2.505602  
C    -1.977911   -1.455032   -3.090459 
H    -1.931231   -2.45864    -3.523239 
H    -3.020987   -1.254345   -2.82668  
H    -1.617804   -0.721057   -3.808419 
N    0.586403    1.718879    -0.725267 
H    3.926831    1.429027    1.953969  
H    1.127633    1.148485    3.19049   
H    0.109245    -0.27677    3.390644  
H    2.257487    2.177622    -1.898733 
H    -0.108385   -2.440674   2.756226  
