58                                     
                                       
C    -3.970913   0.534465    -0.546733 
C    -3.192822   -0.412618   -1.209907 
C    -1.839051   -0.470992   -0.906818 
C    -1.209335   0.396485    -0.007531 
C    -2.030472   1.302692    0.658145  
C    -3.41031    1.390327    0.409442  
O    -0.456138   -2.248649   2.509007  
N    0.269736    -1.495044   -0.927651 
N    -0.986915   -1.492718   -1.413876 
Co   0.715168    0.181504    0.01696   
C    1.427657    1.159849    -1.672501 
C    0.896931    2.147767    -0.794102 
C    1.588373    2.038641    0.446381  
C    2.658238    1.087869    0.269894  
C    2.566925    0.551735    -1.024929 
C    0.947222    0.869981    -3.062877 
C    -0.181459   3.122606    -1.147838 
C    1.362892    2.839511    1.693887  
C    3.651572    0.731087    1.329641  
C    3.492482    -0.447274   -1.64977  
H    -0.966618   2.661892    -1.75238  
H    -0.650972   3.553069    -0.261655 
H    0.259549    3.94109     -1.727311 
H    0.430756    3.406645    1.643168  
H    1.316838    2.192025    2.575285  
H    2.177657    3.554658    1.847447  
H    3.17786     0.708769    2.314401  
H    4.109092    -0.244203   1.145522  
H    4.452807    1.477354    1.358769  
H    -1.197489   -1.909381   1.921659  
H    -3.160015   -0.972859   1.263344  
O    -2.790935   -1.841688   1.49401   
H    -3.357753   -2.205843   2.189673  
H    -1.596812   1.980378    1.393537  
C    1.590563    -2.00267    3.621156  
H    3.884226    -1.158841   -0.917026 
C    0.869618    -2.573172   -1.428641 
H    -3.65143    -1.100623   -1.913248 
H    2.999132    -1.008      -2.447299 
H    4.349382    0.068509    -2.095847 
H    -5.033026   0.597412    -0.764977 
O    0.924088    -0.614119   1.803008  
C    0.64434     -1.562674   2.543607  
H    1.219279    -1.635462   4.582897  
H    1.614112    -3.092498   3.671934  
H    2.585345    -1.599495   3.438962  
H    0.170454    -4.196044   -2.791147 
H    1.89834     -2.788876   -1.177493 
C    -0.016321   -3.281443   -2.251147 
C    -1.194612   -2.558139   -2.211019 
H    -2.151794   -2.732871   -2.6782   
H    1.102314    -0.180991   -3.326428 
H    -0.121219   1.082913    -3.161269 
H    1.480556    1.482231    -3.797447 
C    -4.255611   2.417664    1.117945  
H    -3.897678   2.593966    2.135742  
H    -4.221136   3.375131    0.586787  
H    -5.302594   2.109152    1.169471  
