61                                     
                                       
C    -3.835612   -2.175056   -1.466529 
C    -2.485765   -2.435513   -1.683487 
C    -1.534046   -1.563732   -1.14344  
C    -1.875762   -0.425831   -0.378455 
C    -3.233887   -0.228077   -0.132584 
C    -4.202941   -1.076775   -0.682053 
O    -0.00271    -0.117017   1.938607  
N    0.678038    -0.922787   -0.721452 
C    -0.106435   -1.794376   -1.258594 
Co   -0.304244   0.611653    0.115569  
C    -0.322828   2.052767    -1.376695 
C    -1.270912   2.460761    -0.378695 
C    -0.578357   2.57865     0.845612  
C    0.832952    2.389129    0.583544  
C    0.987191    2.123963    -0.788429 
C    -0.623635   1.802173    -2.8236   
C    -2.701408   2.803554    -0.645643 
C    -1.147641   2.911831    2.190362  
C    1.899376    2.507325    1.627961  
C    2.262975    1.964301    -1.555177 
H    -3.162803   2.128021    -1.368727 
H    -3.304564   2.805816    0.26469   
H    -2.736252   3.816206    -1.063306 
H    -2.227995   2.753207    2.221435  
H    -0.6944     2.290829    2.9683    
H    -0.952866   3.960328    2.439838  
H    1.666898    1.875643    2.492501  
H    2.878599    2.216803    1.240145  
H    1.971765    3.540094    1.984517  
H    -1.207393   -2.273894   1.685859  
C    0.267175    -1.215978   2.441568  
O    -0.305458   -2.339009   2.131472  
O    -2.775783   -2.717228   1.633367  
H    -2.930709   -3.622146   1.939595  
H    -3.297118   -2.601726   0.822943  
H    3.115045    1.745298    -0.909286 
H    -2.175725   -3.299222   -2.266332 
H    2.194933    1.168823    -2.301882 
H    2.469795    2.899224    -2.08791  
H    -4.59534    -2.821275   -1.893555 
H    -3.566332   0.593579    0.494855  
H    -5.254574   -0.884676   -0.489095 
C    1.33435     -1.357229   3.485443  
H    0.902568    -1.788597   4.391791  
H    2.093336    -2.054949   3.118729  
H    1.785704    -0.390672   3.70418   
C    2.089014    -1.10268    -0.75215  
C    2.83693     -0.670198   0.344995  
C    2.733799    -1.657776   -1.860511 
C    4.218425    -0.829759   0.349805  
H    2.333968    -0.198673   1.183296  
C    4.116917    -1.805981   -1.851388 
H    2.16268     -1.936166   -2.741492 
C    4.862181    -1.399703   -0.746692 
H    4.793787    -0.499169   1.208873  
H    4.614272    -2.228062   -2.718287 
H    5.940751    -1.514334   -0.746614 
H    0.293391    -2.693597   -1.732188 
H    0.08135     1.085464    -3.25512  
H    -0.5545     2.727879    -3.405146 
H    -1.630648   1.396109    -2.951355 
