71                                     
                                       
C    -2.818859   -2.41314    -0.623767 
C    -1.494174   -2.833333   -0.673937 
C    -0.475299   -1.896267   -0.473444 
C    -0.747474   -0.52858    -0.254861 
C    -2.081514   -0.147005   -0.173222 
C    -3.131796   -1.068175   -0.352617 
O    0.907636    0.828163    1.794061  
N    1.739919    -1.285662   -0.065489 
C    0.924513    -2.248279   -0.329278 
Co   0.881275    0.511639    -0.150854 
C    1.562119    0.927055    -2.091298 
C    0.277608    1.51445     -1.927761 
C    0.354593    2.423137    -0.826793 
C    1.731809    2.490568    -0.417415 
C    2.476316    1.579465    -1.186074 
C    1.924278    -0.112972   -3.107621 
C    -0.905941   1.237563    -2.801518 
C    -0.748727   3.281509    -0.280162 
C    2.265906    3.351807    0.684623  
C    3.964116    1.403006    -1.150788 
H    -0.994349   0.175111    -3.043194 
H    -1.841889   1.549661    -2.334681 
H    -0.793756   1.792112    -3.739653 
H    -1.717995   3.000343    -0.698116 
H    -0.822482   3.203992    0.810448  
H    -0.578513   4.335129    -0.523989 
H    1.458008    3.739104    1.31057   
H    2.960125    2.799312    1.324807  
H    2.803628    4.209227    0.266229  
H    -1.054779   -0.478555   2.488641  
C    0.160019    1.032062    2.759271  
O    -0.927334   0.373209    3.012281  
O    -1.377045   -2.081839   2.374893  
H    -1.85003    -2.392627   3.160971  
H    -1.925472   -2.32552    1.610327  
H    4.373855    1.629506    -0.163383 
H    -1.257261   -3.878602   -0.85648  
H    4.270325    0.386943    -1.412058 
H    4.425635    2.087998    -1.87097  
H    -2.342686   0.884672    0.056955  
C    0.45884     2.11266     3.756102  
H    -0.278444   2.913025    3.633727  
H    0.352899    1.724224    4.770586  
H    1.459623    2.509025    3.594451  
H    -3.620514   -3.120233   -0.812555 
C    -4.543946   -0.628952   -0.263751 
C    -4.931464   0.626138    -0.748461 
C    -5.517086   -1.460038   0.304639  
C    -6.256573   1.038756    -0.66863  
H    -4.195189   1.270561    -1.221547 
C    -6.841371   -1.045634   0.389514  
H    -5.231401   -2.429226   0.704535  
C    -7.21476    0.204703    -0.097505 
H    -6.543866   2.008843    -1.061084 
H    -7.582093   -1.697894   0.840557  
H    -8.248976   0.526776    -0.03445  
H    2.819565    -0.66325    -2.804888 
H    1.111724    -0.8332     -3.246469 
H    2.129204    0.349972    -4.078765 
H    1.273373    -3.282378   -0.376205 
C    3.12402     -1.530273   0.132665  
C    3.838843    -2.384196   -0.710097 
C    3.768875    -0.858903   1.173177  
C    5.202679    -2.570653   -0.500945 
H    3.335586    -2.872618   -1.540242 
C    5.128149    -1.061182   1.380407  
H    3.192298    -0.195031   1.811908  
C    5.848214    -1.912417   0.542873  
H    5.761406    -3.225675   -1.161188 
H    5.629665    -0.550332   2.19594   
H    6.911384    -2.058548   0.700897  
