65                                     
                                       
C    -3.694489   -2.178249   -0.517501 
C    -2.389931   -2.653744   -0.573655 
C    -1.315444   -1.763854   -0.49286  
C    -1.509634   -0.366827   -0.362747 
C    -2.813363   0.092592    -0.294043 
C    -3.9082     -0.797242   -0.38236  
O    -0.141389   0.435557    1.808896  
N    0.956192    -1.261071   -0.248582 
C    0.066502    -2.174628   -0.457857 
Co   0.166714    0.586654    -0.133631 
C    1.002168    1.256004    -1.938794 
C    -0.308004   1.790447    -1.814718 
C    -0.348247   2.563358    -0.612039 
C    0.982266    2.601476    -0.07841  
C    1.816879    1.789612    -0.873234 
C    1.466331    0.380533    -3.063369 
C    -1.405236   1.601914    -2.815412 
C    -1.496731   3.361448    -0.067614 
C    1.361398    3.418997    1.116646  
C    3.298841    1.610891    -0.725546 
H    -1.431204   0.578766    -3.199225 
H    -2.387391   1.82466     -2.395714 
H    -1.235879   2.276925    -3.661685 
H    -2.3925     3.245145    -0.6812   
H    -1.747122   3.070567    0.958364  
H    -1.246797   4.427627    -0.056742 
H    0.691587    3.231479    1.96224   
H    2.390377    3.235647    1.432497  
H    1.277741    4.482774    0.867909  
H    -1.182536   -0.65071    3.514106  
C    0.335278    0.333599    2.947729  
O    -0.316027   -0.272498   3.889847  
O    -2.450921   -1.151126   2.70433   
H    -2.542689   -2.091634   2.494603  
H    -2.422119   -0.693464   1.844473  
H    3.611568    1.624037    0.322576  
H    -2.212392   -3.721907   -0.674842 
H    3.64126     0.665935    -1.154308 
H    3.822252    2.423468    -1.241034 
H    -3.055392   1.145012    -0.17126  
C    1.650918    0.907854    3.380196  
H    1.457857    1.761614    4.037566  
H    2.201888    0.165865    3.96226   
H    2.230859    1.238309    2.519516  
H    -4.525819   -2.868648   -0.58582  
O    -5.117322   -0.224377   -0.317951 
C    -6.268278   -1.053821   -0.387289 
H    -6.287768   -1.763795   0.446121  
H    -7.121984   -0.382595   -0.315831 
H    -6.302914   -1.594355   -1.338734 
H    2.422755    -0.093      -2.832527 
H    0.738738    -0.408445   -3.281144 
H    1.595895    0.972492    -3.975695 
H    0.3661      -3.219395   -0.574035 
C    2.332813    -1.622393   -0.244635 
C    2.892985    -2.31124    -1.322325 
C    3.125602    -1.266591   0.84559   
C    4.248686    -2.630354   -1.307143 
H    2.272069    -2.56844    -2.176192 
C    4.475702    -1.596148   0.859367  
H    2.669779    -0.74919    1.682459  
C    5.04211     -2.272281   -0.220261 
H    4.683924    -3.157309   -2.149817 
H    5.087188    -1.32693    1.714487  
H    6.097781    -2.521233   -0.212542 
