64                                     
                                       
C    -4.166842   -1.537999   -0.696442 
C    -2.919755   -2.120565   -0.927401 
C    -1.783822   -1.339442   -0.637076 
C    -1.849351   -0.019512   -0.135339 
C    -3.117182   0.494144    0.131146  
C    -4.264108   -0.24927    -0.163209 
O    0.228432    0.447135    1.963823  
N    0.535828    -1.041671   -0.461597 
C    -0.42976    -1.848075   -0.752017 
Co   -0.089429   0.790313    0.033627  
C    0.01996     1.83689     -1.754836 
C    -0.761175   2.628376    -0.8469   
C    0.036678    2.88824     0.288082  
C    1.369172    2.386318    0.025102  
C    1.365821    1.795002    -1.250082 
C    -0.434841   1.325416    -3.088418 
C    -2.127937   3.161979    -1.134301 
C    -0.356945   3.616516    1.536439  
C    2.519935    2.535973    0.971354  
C    2.530374    1.233968    -2.005183 
H    -2.758019   2.435226    -1.650885 
H    -2.643896   3.489838    -0.229466 
H    -2.021467   4.037103    -1.785402 
H    -1.442429   3.672017    1.6458    
H    0.044553    3.114472    2.421361  
H    0.033806    4.639597    1.52303   
H    2.253267    2.165776    1.967516  
H    3.401431    1.991719    0.624256  
H    2.795083    3.590783    1.074627  
H    -1.325341   -1.467892   2.256958  
C    0.351444    -0.542334   2.698029  
O    -0.416871   -1.588678   2.675494  
O    -2.94651    -1.638784   2.368407  
H    -3.236519   -2.422548   2.856003  
H    -3.51412    -1.567181   1.584282  
H    3.37753     1.002407    -1.357146 
H    2.265102    0.322998    -2.548119 
H    2.857642    1.974199    -2.743857 
H    -5.068906   -2.097067   -0.92836  
H    -3.234797   1.480158    0.570205  
H    -5.245628   0.174003    0.031328  
C    1.454131    -0.632644   3.710148  
H    1.024729    -0.768048   4.705767  
H    2.059801    -1.517081   3.490429  
H    2.072326    0.263391    3.683175  
C    1.886168    -1.486282   -0.505279 
C    2.786027    -0.971884   0.430863  
C    2.332131    -2.382793   -1.480049 
C    4.114075    -1.384238   0.41726   
H    2.444458    -0.240122   1.1561    
C    3.664056    -2.783691   -1.492272 
H    1.651264    -2.734369   -2.249864 
C    4.556702    -2.292608   -0.542167 
H    4.806693    -0.986915   1.152631  
H    4.007542    -3.471728   -2.257562 
H    5.595061    -2.605557   -0.558658 
H    -0.220183   -2.885715   -1.017262 
H    0.097819    0.409848    -3.362497 
H    -0.252918   2.064476    -3.876187 
H    -1.504072   1.097424    -3.077645 
C    -2.81124    -3.525078   -1.466332 
H    -2.248711   -3.552764   -2.404883 
H    -2.308103   -4.191593   -0.757371 
H    -3.801911   -3.939429   -1.663569 
