68                                     
                                       
C    -3.818963   -1.50736    -0.641228 
C    -2.574099   -2.091276   -0.887504 
C    -1.422034   -1.333066   -0.614241 
C    -1.478599   -0.006803   -0.106443 
C    -2.724244   0.520527    0.171218  
C    -3.897092   -0.206878   -0.113714 
O    0.640389    0.479382    1.961305  
N    0.896763    -1.052717   -0.447916 
C    -0.082263   -1.849891   -0.735565 
Co   0.292979    0.788486    0.032307  
C    0.340325    1.824482    -1.765127 
C    -0.370624   2.643453    -0.821991 
C    0.493333    2.88954     0.265307  
C    1.792988    2.341572    -0.057876 
C    1.706485    1.743565    -1.328502 
C    -0.199003   1.319272    -3.069261 
C    -1.733381   3.219065    -1.038579 
C    0.185241    3.636872    1.526058  
C    2.996014    2.46838     0.824893  
C    2.813047    1.133141    -2.130825 
H    -2.400099   2.524884    -1.553402 
H    -2.207987   3.526789    -0.10435  
H    -1.630449   4.113307    -1.663819 
H    -0.891146   3.727916    1.688108  
H    0.614227    3.127289    2.393576  
H    0.60762     4.646611    1.48515   
H    2.77131     2.121734    1.839887  
H    3.84058     1.890818    0.441943  
H    3.308339    3.51547     0.896737  
H    -0.909333   -1.438189   2.290552  
C    0.755157    -0.483597   2.729658  
O    -0.014745   -1.529084   2.741002  
O    -2.534916   -1.707265   2.361103  
H    -2.776268   -2.478738   2.89304   
H    -3.054967   -1.756631   1.542923  
H    3.676381    0.865981    -1.518494 
H    2.484936    0.233514    -2.658035 
H    3.139851    1.856983    -2.885723 
H    -4.718782   -2.066886   -0.87064  
H    -2.858936   1.50635     0.604711  
C    1.853984    -0.54174    3.748531  
H    1.425176    -0.678291   4.743955  
H    2.479581    -1.414461   3.536938  
H    2.453596    0.366566    3.714045  
C    2.240995    -1.51036    -0.502136 
C    3.156527    -1.001173   0.421973  
C    2.671579    -2.413089   -1.478567 
C    4.482429    -1.419942   0.392397  
H    2.828205    -0.267333   1.150939  
C    4.00033     -2.823587   -1.504924 
H    1.980241    -2.76213    -2.240199 
C    4.90846     -2.334308   -0.568782 
H    5.186024    -1.023952   1.1181    
H    4.329615    -3.516953   -2.271746 
H    5.944657    -2.6535     -0.597084 
H    0.117669    -2.888406   -1.005331 
H    0.295656    0.390031    -3.367211 
H    -0.043945   2.050831    -3.869657 
H    -1.27092    1.116227    -2.99704  
C    -2.494977   -3.49754    -1.429024 
H    -1.950569   -3.528451   -2.377844 
H    -1.982588   -4.168003   -0.730719 
H    -3.492885   -3.903139   -1.606641 
O    -5.04947    0.423496    0.159452  
C    -6.273208   -0.238599   -0.118531 
H    -6.365804   -1.156276   0.472609  
H    -7.059287   0.458412    0.166035  
H    -6.357969   -0.474646   -1.18439  
