69                                     
                                       
C    -3.76951    -1.151011   -0.363973 
C    -2.581505   -1.826208   -0.609365 
C    -1.357484   -1.158051   -0.445995 
C    -1.260032   0.180202    -0.017401 
C    -2.465682   0.825095    0.247887  
C    -3.70851    0.203792    0.058134  
O    1.01344     0.396113    1.947724  
N    0.982047    -1.110916   -0.465286 
C    -0.087348   -1.816358   -0.637309 
Co   0.593293    0.788861    0.039465  
C    0.689925    1.833911    -1.749704 
C    0.093657    2.708548    -0.778332 
C    1.00912     2.853023    0.285015  
C    2.238708    2.186137    -0.086123 
C    2.054722    1.614289    -1.357934 
C    0.065454    1.400578    -3.041496 
C    -1.206982   3.42483     -0.951468 
C    0.814284    3.609581    1.562808  
C    3.473953    2.186107    0.760303  
C    3.069509    0.912759    -2.205856 
H    -1.954061   2.811976    -1.459261 
H    -1.623319   3.767573    -0.001722 
H    -1.025971   4.312522    -1.568325 
H    -0.242874   3.799806    1.761258  
H    1.219787    3.049555    2.410237  
H    1.329425    4.575155    1.518667  
H    3.249833    1.833997    1.773523  
H    4.25461     1.54986     0.336915  
H    3.876665    3.200721    0.846296  
H    -0.735926   -1.274075   2.388524  
C    1.081591    -0.622653   2.649184  
O    0.183917    -1.56086    2.68325   
O    -2.297183   -0.979313   2.73319   
H    -2.801291   -1.656365   3.205179  
H    -2.885471   -0.596693   2.064579  
H    3.94203     0.591901    -1.634283 
H    2.650733    0.032288    -2.700439 
H    3.407588    1.601113    -2.988484 
H    -2.509403   1.845341    0.61557   
C    2.254385    -0.881282   3.546891  
H    1.906273    -0.978547   4.57818   
H    2.711625    -1.833666   3.262265  
H    2.982535    -0.075337   3.468329  
C    2.265466    -1.706569   -0.602145 
C    3.291851    -1.281958   0.244477  
C    2.527155    -2.667001   -1.583061 
C    4.560134    -1.842025   0.136329  
H    3.094179    -0.504383   0.975027  
C    3.800267    -3.217509   -1.689736 
H    1.749406    -2.954066   -2.284857 
C    4.81819     -2.812982   -0.829031 
H    5.350696    -1.511996   0.803153  
H    3.999887    -3.955411   -2.459682 
H    5.810038    -3.242474   -0.919411 
H    -0.020678   -2.880635   -0.873816 
H    0.463597    0.435168    -3.367198 
H    0.261492    2.127781    -3.836931 
H    -1.017626   1.294664    -2.936599 
O    -4.801693   0.927412    0.374998  
C    -5.957588   0.874588    -0.467642 
H    -6.627429   0.071699    -0.161375 
H    -6.447294   1.84112     -0.348733 
H    -5.66799    0.733608    -1.512794 
H    -2.592801   -2.867276   -0.915571 
O    -5.004866   -1.69828    -0.453386 
C    -5.100152   -3.033835   -0.91458  
H    -6.163667   -3.264597   -0.947804 
H    -4.669945   -3.135185   -1.917258 
H    -4.598278   -3.724549   -0.227201 
