54                                     
                                       
C    3.513608    -2.269173   -0.813291 
C    3.337214    -0.894792   -0.915468 
C    2.060566    -0.360683   -0.725811 
C    0.933868    -1.158896   -0.446802 
C    1.148383    -2.533166   -0.326649 
C    2.421862    -3.084327   -0.512446 
O    -0.094093   -0.255842   1.813684  
N    0.528744    1.434371    -0.397838 
C    1.755882    1.063829    -0.723293 
Co   -0.66751    -0.130624   -0.060594 
C    -1.901893   0.109994    -1.72672  
C    -1.803568   -1.279871   -1.440548 
C    -2.260862   -1.479606   -0.102189 
C    -2.776403   -0.224031   0.375603  
C    -2.560966   0.752269    -0.613896 
C    -1.491244   0.776746    -3.005426 
C    -1.325029   -2.322483   -2.402712 
C    -2.351719   -2.766342   0.664077  
C    -3.405534   -0.037312   1.721623  
C    -3.02038    2.18009     -0.584012 
H    -0.42217    -2.0085     -2.931798 
H    -1.106988   -3.268593   -1.905286 
H    -2.108662   -2.507619   -3.145197 
H    -1.929809   -3.601632   0.101213  
H    -1.825319   -2.70041    1.622289  
H    -3.397702   -3.011536   0.875618  
H    -2.754675   -0.408111   2.520898  
H    -3.639956   1.011226    1.920148  
H    -4.342284   -0.60201    1.776623  
H    1.517608    -0.385579   3.393301  
C    0.096391    0.615693    2.67848   
O    0.962333    0.430018    3.622717  
O    2.428355    -1.407736   2.545168  
H    2.930386    -2.155155   2.897949  
H    1.950071    -1.729864   1.76111   
H    -2.911617   2.641882    0.402698  
C    0.377206    2.80163     -0.417898 
H    4.186423    -0.248389   -1.124318 
H    -2.480904   2.789664    -1.31295  
H    -4.082343   2.231068    -0.847024 
C    1.499845    3.483571    -0.759235 
H    4.496654    -2.70364    -0.958739 
H    0.322726    -3.197279   -0.081766 
H    2.560751    -4.158029   -0.424446 
C    -0.625074   1.926195    2.732145  
H    -1.077834   2.048826    3.719443  
H    0.098487    2.735309    2.596441  
H    -1.390203   1.972186    1.957144  
S    2.794988    2.385535    -1.071153 
H    1.636333    4.551644    -0.845367 
H    -0.578239   3.242504    -0.165953 
H    -1.094722   1.780697    -2.825426 
H    -2.344267   0.870004    -3.685734 
H    -0.715663   0.2015      -3.517272 
