56                                     
                                       
C    3.862489    -1.677575   -0.797188 
C    3.428541    -0.390726   -1.097889 
C    2.082211    -0.082768   -0.894819 
C    1.131586    -1.000382   -0.409965 
C    1.604985    -2.279129   -0.107097 
C    2.950755    -2.613538   -0.302769 
O    0.180103    0.158609    1.759053  
N    0.280532    1.461073    -0.778806 
C    1.510899    1.235701    -1.113333 
Co   -0.594233   -0.170516   -0.021566 
C    -1.66254    -1.691809   -1.040365 
C    -1.903176   -1.747621   0.367493  
C    -2.569353   -0.53067    0.744346  
C    -2.658551   0.301336    -0.389395 
C    -2.056127   -0.405708   -1.495052 
C    -1.119658   -2.773458   -1.920743 
C    -1.659428   -2.89754    1.300262  
C    -3.019761   -0.233575   2.141143  
C    -3.322604   1.643173    -0.477199 
C    -1.949002   0.077899    -2.911216 
H    -1.198932   -3.741988   0.782919  
H    -1.009082   -2.611616   2.13392   
H    -2.604976   -3.251914   1.723348  
H    -2.222617   -0.435113   2.863908  
H    -3.34128    0.803705    2.258344  
H    -3.868674   -0.874499   2.401915  
H    -3.451842   2.100983    0.50672   
H    -2.762036   2.341121    -1.10449  
H    -4.318692   1.538416    -0.920134 
H    2.019746    0.617468    3.001682  
C    0.359104    1.236149    2.353533  
O    1.390812    1.412079    3.112721  
O    2.850684    -0.625714   2.482078  
H    3.711047    -0.504741   2.054502  
H    2.294288    -1.085258   1.828609  
H    -0.711597   2.74976     -2.118074 
H    1.367549    3.908029    -2.548    
H    -2.234139   1.129465    -2.995198 
C    -0.059408   2.811886    -1.239853 
H    4.11268     0.362029    -1.479087 
H    -0.931119   -0.032724   -3.299501 
H    -2.616312   -0.494601   -3.563702 
C    1.323046    3.401659    -1.585314 
H    4.900259    -1.954616   -0.948733 
H    0.936135    -3.034638   0.2977    
H    3.292321    -3.616306   -0.062864 
C    -0.585446   2.396372    2.287666  
H    -1.067664   2.50696     3.264102  
H    -0.029732   3.316436    2.092106  
H    -1.343566   2.22864     1.522109  
H    1.715078    4.05439     -0.801756 
H    -0.577066   3.384587    -0.466885 
O    2.186123    2.23847     -1.652813 
H    -0.429967   -2.375141   -2.669248 
H    -1.950103   -3.255848   -2.448096 
H    -0.59229    -3.54217    -1.353988 
