55                                     
                                       
C    -3.79354    -1.309321   -1.291279 
C    -3.405136   -1.065802   0.025007  
C    -2.104669   -0.62975    0.248487  
C    -1.146997   -0.470184   -0.759677 
C    -1.583006   -0.688792   -2.06577  
C    -2.894484   -1.095549   -2.337697 
O    0.771358    1.800331    -0.65586  
N    -0.411638   0.298205    1.58026   
N    -1.656111   -0.217257   1.535394  
Co   0.616642    -0.069268   -0.065553 
C    1.399851    -1.872654   0.606318  
C    1.288608    -1.952509   -0.81166  
C    2.046711    -0.880974   -1.36503  
C    2.756614    -0.242138   -0.284428 
C    2.368208    -0.8479     0.921542  
C    0.707902    -2.762168   1.595172  
C    0.519489    -2.99717    -1.556942 
C    2.210449    -0.527583   -2.813052 
C    3.707097    0.899349    -0.459142 
C    2.879222    -0.526101   2.292824  
H    -0.428465   -3.234401   -1.067841 
H    0.299264    -2.69148    -2.581099 
H    1.119611    -3.912663   -1.600109 
H    1.487768    -1.055559   -3.439138 
H    2.076655    0.54669     -2.974772 
H    3.211767    -0.795736   -3.165642 
H    3.358853    1.578659    -1.241339 
H    3.829071    1.471223    0.464149  
H    4.692928    0.524025    -0.754094 
H    -1.615022   2.485453    -0.490774 
C    0.303654    2.941794    -0.5851   
O    -0.949675   3.235316    -0.4238   
O    -3.147966   1.922861    -0.741102 
H    -3.719489   2.611074    -1.112133 
H    -3.254185   1.141197    -1.308519 
H    3.113926    0.536391    2.405685  
C    -0.220122   0.721744    2.827559  
H    -4.114226   -1.186366   0.837769  
H    2.159348    -0.805944   3.065717  
H    3.799728    -1.086838   2.486616  
H    -4.803098   -1.648028   -1.498029 
H    -0.892761   -0.549161   -2.895533 
H    -3.209843   -1.262342   -3.362906 
C    1.188174    4.145896    -0.717914 
H    1.053093    4.569435    -1.717893 
H    0.889192    4.907144    0.004644  
H    2.231345    3.866412    -0.58027  
H    -1.517599   0.713262    4.643447  
H    0.718418    1.177781    3.108845  
C    -1.362413   0.478297    3.602425  
C    -2.258978   -0.119847   2.736357  
H    -3.269933   -0.465987   2.888364  
H    0.49675     -2.230805   2.528603  
H    -0.243527   -3.126716   1.19729   
H    1.325805    -3.633024   1.837423  
