58                                     
                                       
C    2.914691    1.967654    -0.789745 
C    1.688526    2.622643    -0.726588 
C    0.545383    1.852755    -0.54091  
C    0.544474    0.457776    -0.449163 
C    1.787158    -0.162323   -0.491515 
C    2.956409    0.583299    -0.657074 
O    -0.546035   -0.416691   1.839318  
N    -1.730674   1.582768    -0.025204 
N    -0.742589   2.435181    -0.36562  
Co   -1.174718   -0.319186   -0.02871  
C    -2.250544   -0.885736   -1.717561 
C    -1.054192   -1.65728    -1.673127 
C    -1.038092   -2.360559   -0.432411 
C    -2.297045   -2.120778   0.224164  
C    -3.043594   -1.219892   -0.557288 
C    -2.662543   0.03416     -2.827055 
C    -0.014188   -1.701355   -2.749185 
C    0.031037    -3.270917   0.097005  
C    -2.680159   -2.712802   1.543706  
C    -4.432245   -0.730531   -0.2716   
H    0.164842    -0.714735   -3.183088 
H    0.941071    -2.08014    -2.381302 
H    -0.354083   -2.367381   -3.54958  
H    0.822855    -3.423925   -0.640159 
H    0.48741     -2.866888   1.007816  
H    -0.389017   -4.253595   0.333599  
H    -1.843056   -2.674001   2.246208  
H    -3.530762   -2.192691   1.989949  
H    -2.960625   -3.763543   1.412548  
H    1.423081    -0.571699   3.02907   
C    -0.18105    0.402253    2.695114  
O    0.899542    0.21327     3.387232  
O    2.412018    -1.66044    2.328416  
H    2.840705    -2.303599   2.912368  
H    3.128446    -1.24297    1.820123  
H    -4.580247   -0.502871   0.788608  
C    -2.822029   2.322364    0.156302  
H    1.6449      3.704329    -0.802693 
H    -4.669648   0.161687    -0.856031 
H    -5.162827   -1.498721   -0.545565 
H    3.830073    2.531777    -0.927854 
H    1.861921    -1.242982   -0.383558 
C    -0.915006   1.667685    3.019813  
H    -0.705444   1.968917    4.046148  
H    -0.558555   2.459123    2.349647  
H    -1.985059   1.534941    2.861821  
H    -3.21006    4.515111    0.000854  
H    -3.753762   1.855373    0.442466  
C    -2.534779   3.676708    -0.064936 
C    -1.193196   3.706414    -0.395782 
H    -0.542246   4.528462    -0.652759 
H    -3.237993   0.884839    -2.450797 
H    -1.791851   0.430235    -3.35588  
H    -3.284709   -0.495584   -3.555939 
C    4.265343    -0.147529   -0.620936 
F    4.235903    -1.259078   -1.360494 
F    4.544124    -0.554139   0.652823  
F    5.290475    0.599858    -1.015907 
