57                                     
                                       
C    3.021386    2.149151    -1.167401 
C    1.796784    2.758393    -0.915513 
C    0.719193    1.936164    -0.59549  
C    0.773288    0.537847    -0.58287  
C    2.019633    -0.031552   -0.796189 
C    3.14406     0.761555    -1.060849 
O    0.145786    -0.668575   1.735265  
N    -1.389447   1.548057    0.358137  
N    -0.529858   2.454475    -0.155022 
Co   -0.830691   -0.332004   0.046464  
C    -2.164077   -0.703577   -1.499991 
C    -0.988396   -1.474716   -1.735849 
C    -0.788989   -2.316055   -0.604482 
C    -1.924881   -2.15779    0.26877   
C    -2.772558   -1.178463   -0.278127 
C    -2.730762   0.341948    -2.412893 
C    -0.121663   -1.389749   -2.95288  
C    0.333384    -3.280285   -0.361664 
C    -2.099395   -2.901786   1.555     
C    -4.093445   -0.731567   0.273234  
H    -0.055743   -0.368239   -3.334556 
H    0.89366     -1.737841   -2.753896 
H    -0.545372   -2.02006    -3.742155 
H    1.038302    -3.29007    -1.196418 
H    0.891778    -3.026134   0.545256  
H    -0.057513   -4.296889   -0.250251 
H    -1.17248    -2.896469   2.135465  
H    -2.894003   -2.471311   2.168145  
H    -2.361091   -3.945224   1.348895  
H    2.413615    -1.028921   2.220509  
C    0.847324    0.071943    2.444764  
O    2.069848    -0.226216   2.743833  
O    3.12075     -2.133054   1.323408  
H    3.652625    -2.788521   1.797913  
H    3.69923     -1.77113    0.615805  
H    -4.082957   -0.662043   1.365132  
C    -2.431619   2.234989    0.816392  
H    1.706442    3.839696    -0.935085 
H    -4.391126   0.237242    -0.135089 
H    -4.872748   -1.450298   -0.00101  
H    3.891508    2.758164    -1.396415 
H    2.143961    -1.111821   -0.743505 
C    0.370792    1.374512    3.013331  
H    0.856753    1.564947    3.970749  
H    0.6616      2.175048    2.322284  
H    -0.713546   1.372892    3.117085  
H    -2.911586   4.415612    0.860259  
H    -3.260016   1.719779    1.281401  
C    -2.243828   3.609151    0.601446  
C    -1.01415    3.707374    -0.018869 
H    -0.461196   4.565421    -0.370436 
C    4.475981    0.128376    -1.134013 
O    4.711177    -0.982084   -0.695567 
H    5.286943    0.72202     -1.592157 
H    -3.233001   1.135069    -1.851115 
H    -1.946541   0.807717    -3.015433 
H    -3.462559   -0.09797    -3.098359 
