78                                     
                                       
C    -1.613167   -4.623433   -0.083926 
C    -0.526981   -3.77939    -0.317803 
C    -0.749869   -2.40593    -0.282385 
C    -2.007097   -1.822584   -0.094897 
C    -3.058928   -2.699117   0.169022  
C    -2.870675   -4.084321   0.189729  
O    -2.395086   0.550274    1.601075  
N    -0.015774   -0.181933   -0.08772  
N    0.320807    -1.474776   -0.310225 
Co   -1.973342   0.105617    -0.289261 
C    -2.057799   0.329284    -2.348399 
C    -3.356481   -0.077179   -1.909053 
C    -3.803191   0.879526    -0.965159 
C    -2.854621   1.972841    -0.949022 
C    -1.807345   1.649631    -1.824891 
C    -1.177292   -0.406438   -3.312966 
C    -4.105448   -1.273113   -2.403047 
C    -5.084626   0.859678    -0.188599 
C    -3.011069   3.210218    -0.121297 
C    -0.650612   2.508181    -2.227039 
H    -3.4521     -2.134011   -2.560466 
H    -4.90202    -1.57022    -1.71794  
H    -4.570653   -1.018597   -3.36196  
H    -5.425383   -0.160644   0.009508  
H    -4.962918   1.371478    0.770763  
H    -5.879946   1.374129    -0.738525 
H    -3.041437   2.962482    0.945846  
H    -2.184505   3.904572    -0.282171 
H    -3.944794   3.72226     -0.375549 
H    -1.978867   -1.647121   2.63456   
C    -2.891245   0.089588    2.636637  
O    -2.694472   -1.108209   3.093493  
O    -0.718888   -2.705132   2.593631  
H    -0.542523   -3.071238   3.473144  
H    -0.902332   -3.46245    2.012405  
H    -0.456088   3.310879    -1.512334 
C    1.129421    0.497736    0.045407  
H    0.462472    -4.190621   -0.492296 
H    0.266017    1.923083    -2.336992 
H    -0.871156   2.959597    -3.201157 
H    -1.470221   -5.698759   -0.103579 
H    -4.055804   -2.306163   0.361188  
H    -3.706775   -4.743256   0.40089   
C    -3.808135   0.912151    3.493479  
H    -4.809372   0.471721    3.456331  
H    -3.474868   0.877686    4.532714  
H    -3.843662   1.939946    3.135927  
C    2.223543    -0.390791   -0.103846 
C    1.652704    -1.633182   -0.323848 
H    2.130695    -2.592415   -0.454408 
C    3.656917    -0.134942   0.032914  
H    3.958585    0.84245     0.428289  
H    -0.119444   -0.237625   -3.087245 
H    -1.35993    -1.483816   -3.270454 
H    -1.356138   -0.074055   -4.341108 
C    1.157549    1.943458    0.311308  
C    2.11636     2.748896    -0.315603 
C    0.211278    2.530063    1.157494  
C    2.121347    4.123202    -0.106209 
H    2.830504    2.303012    -1.002416 
C    0.220173    3.906604    1.36343   
H    -0.520117   1.905774    1.66181   
C    1.170489    4.70554     0.730679  
H    2.861303    4.741177    -0.60391  
H    -0.513333   4.356349    2.025768  
H    1.174674    5.778429    0.8933    
N    4.492039    -1.040746   -0.289958 
C    5.868989    -0.809766   -0.079273 
C    6.36414     -0.121303   1.034302  
C    6.759795    -1.334993   -1.019969 
C    7.734601    0.064869    1.181598  
H    5.679553    0.230904    1.800734  
C    8.126183    -1.12978    -0.87591  
H    6.358053    -1.888581   -1.862389 
C    8.617619    -0.428557   0.22422   
H    8.114342    0.588358    2.053287  
H    8.811247    -1.527406   -1.61776  
H    9.686089    -0.282154   0.343489  
