25                                     
                                       
C    1.415518    0.781537    4.1e-05   
C    0.045117    1.04509     -0.000121 
C    -0.856883   -0.022015   -0.000254 
C    -0.364772   -1.332181   -0.000217 
C    0.985004    -1.590255   -6.2e-05  
C    1.88802     -0.525079   6.7e-05   
H    2.102924    1.615643    0.00016   
C    -0.414364   2.481309    -0.000121 
C    -2.311012   0.206781    -0.00047  
H    -1.0813     -2.143049   -0.00032  
H    1.373025    -2.599849   -5.8e-05  
O    3.199917    -0.859551   0.000205  
N    -3.152219   -0.735794   0.000424  
C    4.149191    0.182229    0.000358  
H    5.124902    -0.295919   0.000464  
C    -4.554475   -0.39452    0.000113  
H    4.05066     0.807003    -0.891397 
H    4.050437    0.806944    0.892129  
H    -5.031082   -0.836345   -0.876872 
H    -5.03125    -0.835308   0.877524  
H    -4.738741   0.68711     -0.00056  
H    -2.646069   1.251379    -0.001311 
H    -1.017965   2.708926    -0.880173 
H    -1.018604   2.70873     0.879536  
H    0.441189    3.15433     0.000256  
