26                                     
                                       
C    1.100715    0.469635    0.107971  
C    -0.226109   0.866011    0.012599  
C    -1.256516   -0.074232   0.027653  
C    -0.953222   -1.424922   0.139856  
C    0.369331    -1.824807   0.217777  
C    1.402204    -0.898689   0.195522  
O    2.15505     1.325453    0.144951  
H    -0.478304   1.915645    -0.059749 
C    -2.648011   0.396134    -0.070112 
H    -1.759952   -2.144686   0.155351  
H    0.638453    -2.869696   0.299817  
O    2.67474     -1.359004   0.32127   
N    -3.6399     -0.382011   -0.063401 
C    3.63285     -0.928345   -0.637645 
H    4.367697    -1.727431   -0.713842 
C    -4.959415   0.194483    -0.164565 
H    3.161969    -0.775743   -1.611235 
H    4.117145    -0.006102   -0.323098 
H    -5.464458   -0.219382   -1.039025 
H    -5.544753   -0.096481   0.709372  
H    -4.950471   1.288761    -0.24101  
H    -2.776538   1.485911    -0.151137 
C    1.87977     2.70626     0.084078  
H    1.380676    2.970187    -0.852284 
H    1.258814    3.022079    0.926579  
H    2.841111    3.210241    0.135501  
