21                                     
                                       
C    -2.894761   1.17523     0.000292  
C    -1.512637   1.215406    0.000329  
C    -0.750313   0.032678    2.2e-05   
C    -1.448942   -1.188949   -0.000228 
C    -2.830947   -1.219281   -0.000254 
C    -3.568818   -0.040591   -2.1e-05  
H    -3.453144   2.102973    0.000536  
H    -1.025508   2.181002    0.000704  
C    0.694734    0.045916    -3.7e-05  
H    -0.881061   -2.108083   -0.000415 
H    -3.340911   -2.174632   -0.000456 
H    -4.650291   -0.068137   -6.9e-05  
N    1.351253    -1.179207   0.000132  
C    2.83212     1.156037    -0.000299 
H    1.025971    2.207353    -0.000924 
C    2.626028    -1.213704   0.000248  
H    3.488899    2.011478    -0.000632 
H    3.145708    -2.166088   0.000382  
H    4.43074     -0.196461   5.6e-05   
C    1.483474    1.229895    -0.000427 
N    3.4316      -0.098682   0.000306  
