22                                     
                                       
C    0.979485    -1.203238   -0.155129 
C    -0.404235   -1.222285   -0.155091 
C    -1.110322   -0.031639   -0.018672 
C    -0.433036   1.177899    0.097717  
C    0.94983     1.188566    0.087921  
C    1.657109    0.000572    -0.034506 
H    1.531812    -2.126372   -0.267608 
H    -0.924732   -2.160168   -0.284537 
N    -2.521375   -0.036908   -0.00367  
H    -1.001315   2.091112    0.189723  
H    1.481668    2.126586    0.17394   
C    3.157031    0.012077    0.008546  
N    -3.202928   1.103478    -0.201217 
C    -4.473295   0.767699    -0.118476 
C    -4.632012   -0.609916   0.142105  
C    -3.353078   -1.090345   0.210216  
H    -5.233137   1.520951    -0.24985  
H    -5.544302   -1.164884   0.269498  
H    -2.979016   -2.077272   0.415838  
F    3.618365    -0.118517   1.261783  
F    3.686059    -0.991238   -0.701609 
F    3.663829    1.152834    -0.47135  
