22                                     
                                       
C    2.52116     0.789845    0.073999  
C    1.135897    0.941865    0.116559  
C    0.362229    -0.211326   -0.029361 
C    0.948636    -1.46363    -0.17374  
C    2.325819    -1.58471    -0.19913  
C    3.117128    -0.449736   -0.084851 
H    3.140411    1.671129    0.191459  
C    0.544181    2.304714    0.354559  
N    -1.058069   -0.149268   -0.015305 
H    0.304047    -2.327347   -0.257761 
H    2.778739    -2.56061    -0.31186  
H    4.195881    -0.531368   -0.106247 
N    -1.763571   -1.071593   0.658148  
C    -3.02856    -0.786463   0.413095  
C    -3.155467   0.327255    -0.44019  
C    -1.862174   0.703631    -0.695894 
H    -3.805329   -1.385963   0.859608  
H    -4.054291   0.782012    -0.817071 
H    -1.453246   1.481476    -1.316237 
H    0.293599    2.807791    -0.581891 
H    -0.365241   2.247755    0.952004  
H    1.263814    2.932484    0.877821  
