34                                     
                                       
C    2.122788    0.522333    -0.114864 
C    0.763923    0.777474    -0.205965 
C    -0.158869   -0.23528    0.031854  
C    0.282483    -1.510862   0.372278  
C    1.638153    -1.770547   0.449913  
C    2.566356    -0.767224   0.197935  
O    3.005812    1.53743     -0.365051 
H    0.437715    1.776602    -0.46044  
C    -1.601374   0.0297      -0.063077 
H    -0.448584   -2.284671   0.562303  
H    2.010157    -2.754831   0.702197  
O    3.89645     -1.059966   0.300414  
N    -2.528173   -0.814912   0.104791  
C    -3.805668   -0.092081   -0.008529 
C    -3.370151   1.287457    -0.550481 
O    -1.952365   1.312741    -0.349761 
H    -3.567117   1.39169     -1.620109 
H    -3.811516   2.126289    -0.013925 
C    -4.42109    0.018295    1.383922  
H    -5.381458   0.536193    1.338336  
H    -4.577004   -0.976373   1.801346  
H    -3.756584   0.57066     2.050321  
C    -4.742848   -0.818987   -0.960272 
H    -5.670193   -0.256707   -1.089569 
H    -4.272099   -0.94735    -1.935275 
H    -4.986805   -1.804549   -0.563721 
H    4.600249    0.045962    -1.319515 
H    5.647226    -1.253999   -0.688418 
H    4.209539    -1.661354   -1.656542 
C    4.623969    -0.968515   -0.92018  
C    3.745382    1.96425     0.773202  
H    4.386661    2.775741    0.437324  
H    3.066875    2.331457    1.547174  
H    4.352641    1.151922    1.17574   
