24                                     
                                       
C    -1.752744   -1.059094   -0.001796 
C    -0.382042   -1.318654   -0.001593 
C    0.539921    -0.282899   -0.000143 
C    0.094258    1.040471    0.000921  
C    -1.259255   1.324932    0.00019   
C    -2.169454   0.262587    -0.001333 
C    -2.740572   -2.193206   0.001835  
H    -0.031354   -2.346105   -0.00298  
C    1.97902     -0.601195   -0.000503 
H    0.830794    1.834292    0.00162   
C    -1.760342   2.743031    0.000171  
H    -3.232623   0.481794    -0.002509 
N    2.878909    0.2818      0.000827  
C    4.256638    -0.149858   0.000258  
H    4.759347    0.259621    0.878091  
H    2.22693     -1.672716   -0.00203  
H    4.759378    0.262101    -0.876398 
H    -2.379522   2.936892    0.877808  
H    -0.933845   3.451665    0.003649  
H    -2.373689   2.938837    -0.881141 
H    4.370038    -1.240777   -0.001284 
H    -2.57525    -2.857211   -0.84814  
H    -2.640977   -2.792685   0.908517  
H    -3.764153   -1.825007   -0.049034 
