60                                     
                                       
C    -3.193792   1.631712    1.369305  
C    -2.135191   2.417933    0.921148  
C    -0.944256   1.782436    0.603333  
C    -0.73642    0.405533    0.726254  
C    -1.818103   -0.335992   1.184232  
C    -3.052519   0.249646    1.497224  
H    -0.743034   -2.875642   -0.376874 
C    2.119554    -1.944507   -0.480024 
N    0.172555    2.491802    0.068387  
Co   0.936359    -0.189875   -0.032355 
C    2.966048    -0.928672   0.009386  
C    2.515523    -0.584845   1.335285  
C    1.415659    -1.418659   1.656469  
C    1.118776    -2.218614   0.505833  
C    2.148613    -2.581507   -1.832521 
C    4.168271    -0.355714   -0.683979 
C    3.145098    0.435888    2.235699  
C    0.708529    -1.448807   2.977737  
C    0.019194    -3.226391   0.330029  
H    0.426129    -4.171682   -0.045102 
H    1.188744    -2.419563   -2.333861 
H    2.945879    -2.167906   -2.455749 
H    2.315036    -3.660488   -1.7419   
H    3.977958    -0.160338   -1.744362 
H    4.484778    0.580943    -0.215829 
H    5.016129    -1.047247   -0.624046 
H    3.427259    1.338782    1.684452  
H    2.454461    0.7385      3.027132  
H    1.319922    -1.982785   3.713887  
O    0.066366    -0.357088   -1.702826 
H    -1.429486   -0.216689   -1.8013   
C    0.628284    0.294479    -2.802982 
H    4.048269    0.038054    2.712027  
H    -4.145152   2.100714    1.606094  
H    -1.745607   -1.419505   1.239006  
N    1.241737    1.748066    -0.25483  
O    -2.875765   -1.984854   -1.078378 
H    -0.25347    -1.958891   2.904701  
H    0.51487     -0.442559   3.358324  
C    -3.230468   -0.910061   -1.528749 
O    -2.420821   0.036369    -1.956065 
C    -4.683576   -0.50003    -1.624625 
H    -4.902308   -0.110284   -2.621536 
H    -5.327844   -1.348561   -1.395527 
H    -4.862089   0.307801    -0.906873 
C    2.151802    2.579982    -0.754689 
H    -2.260151   3.490497    0.80381   
C    1.659968    3.891709    -0.750542 
H    3.099477    2.197006    -1.10534  
C    0.386498    3.789331    -0.217677 
H    -0.368077   4.535794    -0.024477 
H    2.15706     4.78691     -1.088554 
H    -0.477272   -3.44117    1.280247  
H    1.711227    0.092674    -2.893769 
H    0.152014    -0.06495    -3.725458 
H    0.499965    1.389126    -2.768096 
C    -4.203308   -0.629046   1.915752  
H    -5.147348   -0.076862   1.92759   
H    -4.298284   -1.469903   1.219749  
H    -4.044116   -1.044472   2.917076  
