60                                     
                                       
C    -3.453885   0.804511    1.541513  
C    -2.716971   1.775385    0.859051  
C    -1.416321   1.414315    0.482291  
C    -0.838284   0.16803     0.758256  
C    -1.626148   -0.76132    1.431553  
C    -2.926043   -0.449447   1.823084  
H    0.037738    -3.19381    0.201003  
C    2.496623    -1.548065   -0.279274 
N    -0.540528   2.283886    -0.256257 
Co   0.903095    -0.103097   -0.025155 
C    3.059294    -0.278219   -0.033273 
C    2.585425    0.166865    1.252775  
C    1.762308    -0.850944   1.79573   
C    1.649689    -1.893581   0.820187  
C    2.64507     -2.386586   -1.508301 
C    4.047411    0.443305    -0.903966 
C    2.952386    1.457624    1.922286  
C    1.144043    -0.825559   3.161196  
C    0.875342    -3.176932   0.908945  
H    1.528378    -4.02911    0.690406  
H    1.659871    -2.564629   -1.951752 
H    3.28388     -1.9022     -2.251591 
H    3.091714    -3.354833   -1.257019 
H    3.767167    0.411562    -1.962072 
H    4.144346    1.491851    -0.607417 
H    5.041939    -0.008006   -0.8149   
H    2.96312     2.290959    1.212153  
H    2.235787    1.707775    2.709051  
H    1.910057    -1.022415   3.919681  
O    0.066136    -0.747777   -1.592043 
H    -1.408846   -1.015453   -1.59683  
C    0.428647    -0.181613   -2.815297 
H    3.945827    1.39529     2.380673  
H    -4.467443   1.048244    1.848669  
H    -1.248861   -1.762694   1.61312   
N    0.668386    1.766914    -0.543915 
O    -2.135498   -3.03393    -0.577495 
H    0.366621    -1.584633   3.262416  
H    0.684241    0.141477    3.381788  
C    -2.857729   -2.194528   -1.081965 
O    -2.437679   -1.094843   -1.675075 
C    -4.366965   -2.293437   -1.068415 
H    -4.763103   -2.153498   -2.077059 
H    -4.673771   -3.259035   -0.668079 
H    -4.761827   -1.486768   -0.442894 
C    1.336416    2.681604    -1.237455 
C    0.550159    3.825918    -1.40511  
H    2.333425    2.465433    -1.593702 
C    -0.640858   3.531837    -0.767553 
H    -1.528399   4.126057    -0.652557 
H    0.804865    4.739133    -1.918806 
H    0.471488    -3.328306   1.913774  
H    1.525869    -0.139901   -2.942664 
H    0.03025     -0.794292   -3.635679 
H    0.043484    0.842985    -2.949282 
H    -3.532359   -1.189149   2.338316  
C    -3.365999   3.10635     0.573179  
H    -2.812428   3.941869    1.016288  
H    -3.464832   3.291542    -0.502313 
H    -4.372086   3.121887    0.997942  
