61                                     
                                       
C    3.079058    0.195153    -2.350909 
C    2.091764    1.166553    -2.307889 
C    0.925617    0.924266    -1.573604 
C    0.712204    -0.280411   -0.875412 
C    1.727555    -1.228814   -0.923968 
C    2.894611    -1.002335   -1.657788 
H    0.648036    -2.715463   1.74161   
H    2.240446    2.105711    -2.832785 
C    -0.146751   1.917208    -1.421905 
Co   -0.910845   -0.304005   0.155586  
C    -2.059146   -1.628357   1.462288  
C    -2.955045   -0.911708   0.640925  
C    -2.631454   -1.220648   -0.728593 
C    -1.559417   -2.147386   -0.732558 
C    -1.161579   -2.35902    0.62871   
C    -1.967831   -1.597306   2.954734  
C    -4.129983   -0.105058   1.116382  
C    -3.350202   -0.698289   -1.937199 
C    -0.978691   -2.806572   -1.947324 
C    -0.095438   -3.271644   1.160195  
H    -0.536157   -4.027139   1.820182  
H    -0.995882   -1.193713   3.259356  
H    -2.755492   -0.98021    3.394373  
H    -2.062649   -2.609712   3.36234   
H    -3.862862   0.58492     1.924098  
H    -4.573622   0.475544    0.302351  
H    -4.914879   -0.766182   1.500253  
H    -3.655694   0.345156    -1.806568 
H    -2.713208   -0.744195   -2.824697 
O    0.048274    0.368906    1.626348  
H    1.525621    0.697938    1.465749  
C    -0.546914   1.387415    2.381104  
H    -1.618101   -3.639042   -2.261897 
H    -2.941274   1.956855    0.303688  
H    -3.114878   4.239632    -0.678908 
H    -1.266194   5.026504    -2.191496 
H    0.424248    -3.802715   0.359336  
C    -2.267794   3.606309    -0.913505 
C    -1.238465   4.036269    -1.747877 
H    -4.252817   -1.284825   -2.142236 
C    -2.180561   2.333903    -0.371164 
H    3.994531    0.361348    -2.91362  
N    -1.15933    1.509245    -0.624665 
O    2.472931    1.398057    3.51884   
H    0.019825    -3.202705   -1.751879 
H    -0.892439   -2.109084   -2.785014 
C    3.063385    1.321594    2.460812  
O    2.512183    0.953925    1.315406  
C    4.534563    1.639889    2.30445   
H    4.666698    2.409683    1.539645  
H    4.943489    1.978227    3.255572  
H    5.065582    0.746587    1.964497  
C    -0.170846   3.190077    -1.999822 
H    0.645819    3.508667    -2.636178 
C    3.9476      -2.044138   -1.704147 
O    3.850681    -3.135565   -1.192813 
H    4.865311    -1.759812   -2.262326 
H    1.65976     -2.166626   -0.38079  
H    -0.598271   2.346568    1.837768  
H    -1.576383   1.125539    2.686571  
H    0.049564    1.551652    3.284971  
