62                                     
                                       
C    2.082245    -3.458752   0.035466  
C    2.334169    -2.260425   -0.627578 
C    1.371401    -1.230578   -0.517919 
C    0.1836      -1.4218     0.217911  
C    0.011261    -2.609068   0.922655  
C    0.952418    -3.62826    0.827896  
H    -2.970514   -2.250244   2.059344  
C    3.642276    -2.144602   -1.368081 
C    1.522133    0.152681    -1.009598 
Co   -1.03723    0.048305    0.177113  
C    -3.167609   0.243597    0.714863  
C    -2.859167   1.165564    -0.327313 
C    -2.428269   0.397321    -1.455806 
C    -2.430167   -0.973835   -1.097082 
C    -2.899828   -1.066661   0.256741  
C    -3.708395   0.557121    2.077279  
C    -3.10896    2.646936    -0.282315 
C    -2.027949   0.926362    -2.801988 
C    -2.081353   -2.125768   -1.991268 
C    -3.256341   -2.315165   1.004575  
H    -4.340797   -2.475517   0.966221  
H    -2.988966   0.285853    2.857627  
H    -3.94076    1.620028    2.18036   
H    -4.630132   -0.00777    2.255562  
H    -2.650385   3.117756    0.593049  
H    -2.719016   3.145701    -1.174447 
H    -4.183657   2.858393    -0.245344 
H    -1.796778   1.994332    -2.770047 
H    -1.142883   0.411028    -3.188103 
O    -0.335958   0.635163    1.834182  
H    1.302076    0.889571    1.767095  
C    -0.651851   1.945493    2.204951  
H    -0.482715   2.765999    -0.830941 
H    1.475541    3.928085    -1.857522 
H    3.534542    2.556136    -2.326877 
H    3.549368    0.174778    -1.755355 
H    -2.775897   -3.196432   0.574132  
C    1.517176    2.868346    -1.637113 
C    2.648697    2.101975    -1.892715 
H    -2.838604   0.785153    -3.525219 
C    0.429449    2.227425    -1.068898 
C    2.655384    0.750234    -1.581987 
H    2.81121     -4.260711   -0.041883 
H    -0.849193   -2.741177   1.569283  
N    0.432047    0.92646     -0.770845 
O    3.408655    -0.321446   1.482246  
H    -1.646114   -2.949964   -1.419738 
H    -1.345989   -1.832391   -2.746135 
C    3.268475    0.879245    1.559405  
O    2.109274    1.505377    1.713481  
C    4.415182    1.863075    1.479634  
H    4.487581    2.418405    2.418671  
H    5.346265    1.329973    1.290636  
H    4.221248    2.588202    0.684325  
H    3.519509    -1.777263   -2.391926 
H    4.322801    -1.4749     -0.829516 
H    4.123262    -3.124008   -1.425389 
H    0.811279    -4.556729   1.374863  
H    -2.970136   -2.49794    -2.513795 
H    -1.722459   2.084005    2.415289  
H    -0.102146   2.212295    3.118014  
H    -0.366285   2.694372    1.442056  
