62                                     
                                       
C    -2.063715   3.013125    1.536448  
C    -0.803702   3.139657    0.96652   
C    -0.090252   1.994807    0.577293  
C    -0.655076   0.712618    0.740303  
C    -1.921206   0.613875    1.313283  
C    -2.622182   1.749708    1.713461  
H    -2.400029   -2.385797   0.381513  
H    -0.415488   4.134756    0.802136  
C    1.215588    1.997041    -0.114781 
Co   0.367291    -0.714188   -0.018337 
C    0.490825    -2.89717    -0.088596 
C    1.791306    -2.379719   0.084024  
C    1.793788    -1.607004   1.29956   
C    0.504585    -1.700878   1.884916  
C    -0.327451   -2.451184   0.99393   
C    -0.026338   -3.709354   -1.232999 
C    2.990407    -2.69771    -0.762146 
C    2.976399    -0.889212   1.880228  
C    0.108578    -1.134896   3.214962  
C    -1.769803   -2.833173   1.159607  
H    -1.880671   -3.922256   1.106921  
H    -0.853102   -3.177006   -1.715651 
H    0.750666    -3.902614   -1.977293 
H    -0.401548   -4.675072   -0.8768   
H    2.754195    -2.69866    -1.831931 
H    3.80333     -1.985493   -0.593645 
H    3.37823     -3.692302   -0.514539 
H    3.601362    -0.443824   1.098631  
H    2.657573    -0.080692   2.544294  
O    -0.718466   -0.71283    -1.560616 
H    -1.984055   0.074534    -1.631631 
C    -0.086841   -0.708691   -2.803571 
H    0.444476    -1.80031    4.01848   
H    2.751847    -0.400184   -1.780697 
H    4.372553    1.446697    -2.266032 
H    3.946288    3.676765    -1.210869 
H    -2.155676   -2.515329   2.131899  
C    3.502262    1.62009     -1.644519 
C    3.248534    2.856349    -1.064318 
H    3.607634    -1.57035    2.462185  
C    2.610722    0.596717    -1.378144 
C    2.110341    3.076798    -0.293202 
H    -2.612955   3.903163    1.827487  
N    1.526477    0.777312    -0.621605 
O    -3.895873   -0.882703   -0.580052 
H    -0.9743     -1.022956   3.294952  
H    0.548292    -0.147911   3.382884  
C    -3.862576   0.189586    -1.155523 
O    -2.807332   0.68889     -1.764978 
C    -5.050863   1.123807    -1.218071 
H    -5.934484   0.631589    -0.813429 
H    -4.820583   2.01862     -0.631096 
H    -5.226809   1.442777    -2.248051 
H    -3.614593   1.647423    2.144982  
H    1.164657    5.024103    -0.195854 
H    1.624118    4.360045    1.377962  
H    2.862325    4.993532    0.282503  
C    1.923771    4.435949    0.329621  
H    -2.404026   -0.354112   1.403803  
H    0.671567    -1.510551   -2.884669 
H    -0.8277     -0.886242   -3.595432 
H    0.415457    0.245887    -3.031217 
