61                                     
                                       
C    3.536571    -0.127549   -1.607737 
C    2.923907    0.989569    -1.010136 
C    1.570969    0.866457    -0.632653 
C    0.800156    -0.301871   -0.816186 
C    1.449643    -1.374599   -1.402894 
C    2.80314     -1.284208   -1.793783 
H    -0.628122   -3.342808   -0.134282 
C    3.601876    2.234751    -0.755466 
C    0.927733    1.968162    0.01013   
Co   -0.952735   -0.115177   -0.010708 
C    -2.751915   -1.295253   0.316828  
C    -3.121694   0.040523    0.043396  
C    -2.614876   0.372202    -1.263443 
C    -1.9541     -0.766841   -1.784281 
C    -1.989763   -1.792739   -0.779743 
C    -3.001802   -2.064776   1.574533  
C    -4.010826   0.901423    0.895465  
C    -2.801946   1.683097    -1.967995 
C    -1.361166   -0.882844   -3.155786 
C    -1.440063   -3.187731   -0.854803 
H    -2.230895   -3.916212   -0.643199 
H    -2.045494   -2.340867   2.031405  
H    -3.580429   -1.480561   2.295081  
H    -3.557999   -2.982852   1.356132  
H    -3.692441   0.923776    1.943191  
H    -4.041499   1.930653    0.526201  
H    -5.039828   0.525449    0.876058  
H    -2.749534   2.527273    -1.272917 
H    -2.030122   1.836633    -2.726802 
O    -0.237292   -0.731737   1.621983  
H    1.155127    -1.278925   1.683972  
C    -0.569465   -0.059318   2.797451  
H    -2.144847   -1.120288   -3.884238 
H    -2.041692   2.525521    1.28448   
H    -1.009297   4.739349    1.781746  
H    1.369032    5.145574    1.122795  
H    -1.057181   -3.40822    -1.854932 
C    -0.42953    3.977147    1.274593  
C    0.884972    4.196067    0.909372  
H    -3.776435   1.723885    -2.467608 
C    -1.018776   2.738242    0.98987   
C    1.604783    3.178163    0.262417  
H    0.945887    -2.328092   -1.529661 
N    -0.365143   1.764595    0.370657  
O    1.439553    -3.482558   0.83938   
H    -0.606457   -1.670052   -3.198861 
C    2.323642    -2.770772   1.278745  
O    2.145107    -1.563776   1.776173  
C    3.780156    -3.179145   1.28399   
H    3.877242    -4.217784   0.969928  
H    4.326095    -2.527351   0.594734  
H    4.207641    -3.038046   2.279536  
H    3.279297    -2.152188   -2.242734 
C    2.978372    3.280651    -0.151799 
H    4.578882    -0.073432   -1.910583 
H    -0.876937   0.046543    -3.467218 
H    -0.087588   0.928864    2.883551  
H    -1.66011    0.094287    2.892521  
H    -0.251437   -0.654998   3.664195  
H    3.507016    4.210593    0.036514  
H    4.643021    2.3236      -1.055289 
