60                                     
                                       
C    -3.53474    -2.07758    -1.13331  
C    -2.205194   -2.403932   -1.363055 
C    -1.203997   -1.514666   -0.964239 
C    -1.488739   -0.288182   -0.336049 
C    -2.824161   0.009198    -0.078162 
C    -3.821206   -0.87726    -0.482767 
O    -0.078357   0.364967    1.964226  
N    1.008918    -0.949626   -0.522607 
C    0.214481    -1.823988   -1.032973 
Co   0.101312    0.707336    0.097487  
C    0.71245     1.88293     -1.560981 
C    -0.574465   2.323258    -1.150047 
C    -0.475601   2.735085    0.211409  
C    0.910166    2.673375    0.588034  
C    1.644016    2.156462    -0.494607 
C    1.061823    1.323745    -2.907685 
C    -1.791987   2.351824    -2.022462 
C    -1.563918   3.23438     1.113794  
C    1.414287    3.038049    1.948421  
C    3.134343    2.012702    -0.583939 
H    -1.86914    1.453441    -2.640973 
H    -2.711211   2.426129    -1.438006 
H    -1.743415   3.220772    -2.688558 
H    -2.54148    3.194289    0.626563  
H    -1.60996    2.631392    2.027476  
H    -1.383858   4.275252    1.404672  
H    0.891192    2.449035    2.708696  
H    2.486024    2.849063    2.043238  
H    1.237459    4.100016    2.15132   
H    0.062656    -3.474608   1.132253  
C    -0.124767   -0.782195   2.560997  
O    0.164522    -1.865287   2.059619  
H    1.943998    0.679013    -2.846245 
H    0.238921    0.725643    -3.311983 
H    1.280583    2.121885    -3.626046 
H    3.5866      1.845205    0.396138  
H    -1.942344   -3.352507   -1.824302 
H    3.43094     1.178024    -1.224762 
H    3.567055    2.927539    -1.005347 
H    -3.110799   0.919593    0.442205  
C    -0.580528   -0.692502   4.008119  
H    -0.447464   -1.652385   4.50647   
H    -0.023082   0.088189    4.531571  
H    -1.637833   -0.411807   4.030835  
H    -4.340532   -2.739328   -1.429845 
Cl   -5.49121    -0.47719    -0.16105  
O    -0.288113   -4.13058    0.501533  
H    -1.241926   -4.056231   0.641498  
H    0.581909    -2.77855    -1.407241 
C    2.400273    -1.199431   -0.442713 
C    3.125402    -1.650738   -1.546515 
C    3.044339    -0.942858   0.769228  
C    4.500099    -1.844601   -1.434921 
H    2.613971    -1.823652   -2.489629 
C    4.414357    -1.148809   0.872697  
H    2.451433    -0.601308   1.612549  
C    5.146682    -1.593479   -0.228018 
H    5.065168    -2.186795   -2.296155 
H    4.91468     -0.960261   1.817431  
H    6.218258    -1.743024   -0.144424 
