70                                     
                                       
C    -2.593491   -2.843182   -0.150284 
C    -1.249996   -3.178188   -0.135009 
C    -0.292941   -2.155391   -0.125064 
C    -0.643193   -0.788893   -0.138292 
C    -2.000014   -0.489442   -0.105806 
C    -2.980701   -1.492956   -0.117216 
O    0.978635    0.5892      1.760047  
N    1.889753    -1.354784   0.078981  
C    1.12459     -2.391547   0.02851   
Co   0.905099    0.374576    -0.138915 
C    1.068254    0.781045    -2.196244 
C    0.091474    1.682901    -1.652284 
C    0.727232    2.457344    -0.658429 
C    2.124743    2.101393    -0.635737 
C    2.336983    1.119037    -1.623948 
C    0.828945    -0.223412   -3.283995 
C    -1.319883   1.831637    -2.128285 
C    0.125159    3.565032    0.150065  
C    3.13045     2.718256    0.287738  
C    3.646302    0.521479    -2.040934 
H    -1.735085   0.874496    -2.456284 
H    -1.973933   2.244778    -1.354079 
H    -1.333484   2.513133    -2.987546 
H    -0.964802   3.512475    0.161367  
H    0.469775    3.533286    1.186984  
H    0.423114    4.531198    -0.275431 
H    2.789537    2.642171    1.326675  
H    4.101852    2.222298    0.213098  
H    3.272159    3.780432    0.059014  
H    -2.513041   2.290997    1.212411  
C    -0.00802    1.068491    2.446312  
O    -1.058181   1.499483    1.977695  
H    1.496157    -1.085275   -3.180333 
H    -0.197383   -0.598887   -3.247732 
H    0.997271    0.210545    -4.276381 
H    4.399775    0.57024     -1.250878 
H    -0.942008   -4.221362   -0.128478 
H    3.53852     -0.526917   -2.331799 
H    4.029002    1.067117    -2.911244 
H    -2.31639    0.544063    -0.017099 
C    0.232744    1.065919    3.946386  
H    1.162365    1.594977    4.172983  
H    -0.602185   1.537207    4.464066  
H    0.350786    0.035527    4.292714  
H    -3.349473   -3.621521   -0.191406 
C    -4.41359    -1.111746   -0.073175 
C    -4.855202   0.064106    -0.697263 
C    -5.351422   -1.897023   0.607486  
C    -6.192785   0.442315    -0.636829 
H    -4.144993   0.678792    -1.243803 
C    -6.689579   -1.520611   0.664532  
H    -5.02223    -2.794653   1.123055  
C    -7.115541   -0.349173   0.044039  
H    -6.515118   1.354016    -1.130763 
H    -7.399358   -2.138821   1.205774  
H    -8.159036   -0.0539     0.091438  
O    -3.208159   2.619523    0.610177  
H    -3.968348   2.047575    0.789179  
H    1.534794    -3.395013   0.172669  
C    3.276806    -1.484339   0.337579  
C    4.056008    -2.445186   -0.309312 
C    3.86366     -0.582116   1.228792  
C    5.42418     -2.505087   -0.061055 
H    3.595933    -3.112207   -1.033627 
C    5.230813    -0.653881   1.471729  
H    3.226036    0.140297    1.731142  
C    6.015441    -1.609504   0.82634   
H    6.030466    -3.244191   -0.575244 
H    5.68673     0.041631    2.169843  
H    7.083716    -1.653866   1.012128  
