67                                     
                                       
C    3.024284    -2.435755   -0.422982 
C    1.711312    -2.876734   -0.436287 
C    0.669667    -1.968788   -0.214528 
C    0.914913    -0.601993   0.049872  
C    2.233674    -0.18714    0.079083  
C    3.295076    -1.078943   -0.169277 
O    -0.747308   0.852109    -1.646798 
N    -1.572446   -1.323008   -0.24801  
C    -0.725272   -2.289115   -0.378518 
Co   -0.716127   0.422624    0.220047  
C    -1.77267    0.57258     2.084486  
C    -0.392242   0.825352    2.28432   
C    -0.039743   1.987647    1.513081  
C    -1.214679   2.43268     0.853139  
C    -2.287357   1.557631    1.182179  
C    -2.545692   -0.543996   2.720586  
C    0.515882    0.061851    3.200425  
C    1.276826    2.705377    1.535194  
C    -1.307473   3.602014    -0.077156 
C    -3.714389   1.743391    0.760107  
H    0.191868    -0.977895   3.30231   
H    1.542131    0.050288    2.825751  
H    0.518758    0.512439    4.199578  
H    2.031525    2.128471    2.075146  
H    1.650664    2.893865    0.52588   
H    1.167603    3.666206    2.051002  
H    -0.314307   3.923327    -0.395488 
H    -1.878453   3.341465    -0.974183 
H    -1.814126   4.44078     0.41374   
H    2.887671    2.132832    -1.456153 
C    0.190637    1.542553    -2.197719 
O    1.087369    2.134272    -1.588156 
H    -3.501914   -0.707337   2.2182    
H    -1.987468   -1.485767   2.688501  
H    -2.750345   -0.315211   3.772316  
H    -3.782007   2.070725    -0.282078 
H    1.49402     -3.917918   -0.664314 
H    -4.292142   0.820012    0.85043   
H    -4.199418   2.50724     1.379268  
H    2.487987    0.850485    0.262979  
C    0.134034    1.574107    -3.713883 
H    0.754912    2.382351    -4.100518 
H    0.508521    0.619897    -4.097326 
H    -0.896766   1.686501    -4.055693 
H    3.827227    -3.11983    -0.66716  
N    4.573791    -0.522997   -0.234505 
H    4.590215    0.461185    -0.524725 
C    5.812992    -1.044655   0.06718   
O    6.815775    -0.389699   -0.144717 
C    5.893879    -2.417828   0.705109  
H    5.027075    -2.650401   1.3268    
H    5.986479    -3.188075   -0.066766 
H    6.804288    -2.434548   1.304624  
O    3.805403    2.134261    -1.113558 
H    4.277704    2.809489    -1.615817 
H    -1.065297   -3.286743   -0.670799 
C    -2.948617   -1.536764   -0.511529 
C    -3.655637   -2.57211    0.103153  
C    -3.591687   -0.674434   -1.402789 
C    -5.009093   -2.743115   -0.175272 
H    -3.148008   -3.216657   0.815844  
C    -4.941445   -0.859525   -1.679474 
H    -3.008028   0.113429    -1.871552 
C    -5.654469   -1.888763   -1.065475 
H    -5.560041   -3.541798   0.311394  
H    -5.44051    -0.19528    -2.378334 
H    -6.709996   -2.023033   -1.278838 
