69                                     
                                       
C    -2.715383   -2.444207   -0.907257 
C    -1.385781   -2.835705   -0.958493 
C    -0.388768   -1.8842     -0.709145 
C    -0.682555   -0.539267   -0.400302 
C    -2.024393   -0.179707   -0.358094 
C    -3.038726   -1.112892   -0.605546 
O    0.955851    0.044581    1.809562  
N    1.828506    -1.234032   -0.37549  
C    1.025565    -2.198154   -0.66242  
Co   0.898571    0.506877    -0.041948 
C    1.865472    1.521488    -1.659389 
C    0.482932    1.83407     -1.663154 
C    0.174399    2.480307    -0.418275 
C    1.383837    2.578601    0.324632  
C    2.43216     1.981506    -0.423959 
C    2.600755    0.839955    -2.774759 
C    -0.4674     1.587332    -2.796095 
C    -1.133985   3.099624    -0.024613 
C    1.497444    3.154167    1.701984  
C    3.881445    1.956745    -0.038707 
H    -0.21681    0.667369    -3.332275 
H    -1.497823   1.490219    -2.445635 
H    -0.424804   2.416451    -3.511798 
H    -1.9141     2.881183    -0.758279 
H    -1.462723   2.729648    0.949797  
H    -1.028864   4.189188    0.029328  
H    2.229046    2.603376    2.299941  
H    1.813409    4.202639    1.656726  
H    0.53446     3.101885    2.215995  
H    -2.336301   -0.564313   2.477931  
C    -0.013924   0.322891    2.618538  
O    -1.019013   0.974194    2.320671  
H    3.55019     0.421638    -2.431388 
H    2.009209    0.023332    -3.202006 
H    2.817415    1.548896    -3.581658 
H    4.006771    1.800184    1.036801  
H    -1.122195   -3.866041   -1.185495 
H    4.427989    1.159253    -0.549494 
H    4.359606    2.909566    -0.294199 
H    -2.32188    0.82502     -0.078951 
C    0.12257     -0.262261   4.010595  
H    -0.57742    -1.10217    4.072294  
H    1.136276    -0.611135   4.209105  
H    -0.180904   0.481181    4.750461  
H    -3.505853   -3.160766   -1.109149 
C    -4.452287   -0.673898   -0.501654 
C    -5.420322   -1.503683   0.073758  
C    -5.990034   0.981044    -0.863155 
C    -6.729131   -1.047193   0.155787  
H    -5.132224   -2.465717   0.483661  
C    -7.028246   0.220966    -0.330268 
H    -6.180853   1.984027    -1.238975 
H    -7.499927   -1.665708   0.605357  
H    -8.035111   0.621656    -0.287066 
N    -4.730164   0.557961    -0.951106 
O    -2.52877    -1.518988   2.491669  
H    -2.056803   -1.840189   1.710226  
H    1.405079    -3.213427   -0.808589 
C    3.217064    -1.479821   -0.214098 
C    3.971015    -2.057142   -1.236519 
C    3.817395    -1.113444   0.992741  
C    5.335618    -2.265573   -1.050551 
H    3.489723    -2.311942   -2.176974 
C    5.177766    -1.337276   1.170297  
H    3.194934    -0.671933   1.766609  
C    5.940514    -1.90724    0.151039  
H    5.925126    -2.704438   -1.849338 
H    5.646862    -1.062601   2.110003  
H    7.004036    -2.069989   0.293053  
