68                                     
                                       
C    -3.796088   -1.263323   -0.535859 
C    -2.61375    -1.924054   -0.828576 
C    -1.417776   -1.204805   -0.672743 
C    -1.346511   0.12481     -0.253596 
C    -2.5625     0.735728    0.076887  
C    -3.77308    0.067056    -0.085633 
O    0.49463     0.68095     1.842813  
N    0.900075    -1.14043    -0.413668 
C    -0.122284   -1.858584   -0.731369 
Co   0.462557    0.760523    -0.06418  
C    0.966227    1.573179    -1.94814  
C    0.050763    2.473041    -1.322389 
C    0.623228    2.883855    -0.092996 
C    1.95661     2.336721    -0.02102  
C    2.178121    1.565917    -1.176061 
C    0.747621    0.874626    -3.256444 
C    -1.247995   2.909475    -1.930063 
C    0.031583    3.765652    0.963367  
C    2.876677    2.543235    1.141549  
C    3.452646    0.899296    -1.596882 
H    -1.895358   2.059351    -2.165532 
H    -1.796745   3.573183    -1.261144 
H    -1.043929   3.447604    -2.862717 
H    -0.964107   4.110278    0.678811  
H    -0.058807   3.213172    1.904802  
H    0.666305    4.64219     1.13521   
H    2.369485    2.254826    2.068792  
H    3.784976    1.942225    1.045055  
H    3.173608    3.594623    1.224271  
H    -1.179897   -2.859043   1.477297  
C    0.036835    -0.248491   2.619159  
O    -0.392922   -1.344148   2.272244  
H    1.272136    -0.086267   -3.281822 
H    -0.316214   0.673917    -3.414754 
H    1.108858    1.474118    -4.100364 
H    4.111102    0.691854    -0.750754 
H    3.269342    -0.048938   -2.109343 
H    3.988952    1.554289    -2.293514 
C    0.086026    0.132056    4.091764  
H    -0.237886   -0.704329   4.710727  
H    1.101661    0.431811    4.36443   
H    -0.565492   0.993768    4.263089  
C    2.181756    -1.721888   -0.270199 
C    2.972833    -1.295036   0.800089  
C    2.67376     -2.665311   -1.174359 
C    4.244978    -1.828701   0.969518  
H    2.571522    -0.551012   1.483928  
C    3.952284    -3.187215   -0.999922 
H    2.066681    -2.962034   -2.025173 
C    4.740417    -2.772455   0.07058   
H    4.855058    -1.502808   1.806465  
H    4.336273    -3.912269   -1.710726 
H    5.738347    -3.1785     0.200756  
H    -0.032536   -2.929551   -0.909259 
O    -1.182589   -3.760769   1.104503  
H    -0.55358    -4.224508   1.673431  
H    -2.582381   -2.974131   -1.091582 
O    -2.477561   2.000289    0.587477  
C    -3.680016   2.673288    0.874129  
H    -4.257879   2.153035    1.647503  
H    -3.396475   3.660847    1.242124  
H    -4.300617   2.782651    -0.025087 
H    -4.726357   0.517793    0.164549  
O    -5.033965   -1.823838   -0.617596 
C    -5.082414   -3.207139   -0.892193 
H    -6.133898   -3.49042    -0.842066 
H    -4.694337   -3.427912   -1.894454 
H    -4.507818   -3.776413   -0.151522 
