74                                     
                                       
C    3.185996    -0.028544   -0.138656 
C    2.229171    0.998021    -0.362627 
C    0.863507    0.6481      -0.311789 
C    0.42344     -0.664985   -0.046073 
C    1.37916     -1.637072   0.211374  
C    2.752224    -1.350928   0.158344  
O    -1.540012   -1.025941   1.870329  
N    -1.411683   1.136446    -0.222182 
C    -0.224564   1.604409    -0.407108 
Co   -1.491754   -0.829844   -0.025808 
C    -2.232257   -1.183723   -1.987099 
C    -1.391296   -2.270099   -1.62383  
C    -1.931004   -2.85764    -0.443116 
C    -3.182285   -2.207871   -0.163174 
C    -3.376277   -1.186455   -1.109949 
C    -2.01771    -0.259728   -3.1485   
C    -0.175026   -2.702877   -2.383657 
C    -1.389673   -4.002128   0.360225  
C    -4.051914   -2.556497   1.003286  
C    -4.592384   -0.321668   -1.262378 
H    0.424118    -1.848472   -2.71012  
H    0.472822    -3.344996   -1.783787 
H    -0.48056    -3.265284   -3.273452 
H    -0.437627   -4.359878   -0.040351 
H    -1.233162   -3.698626   1.401547  
H    -2.086967   -4.847325   0.355939  
H    -3.480311   -2.466405   1.932775  
H    -4.920147   -1.896638   1.067668  
H    -4.414478   -3.586933   0.918571  
H    0.141684    2.505264    2.117115  
C    -1.095075   -0.205876   2.766186  
O    -0.766517   0.961758    2.574855  
H    -2.529769   0.694044    -2.988867 
H    -0.953307   -0.047105   -3.291808 
H    -2.401074   -0.692997   -4.079343 
H    -5.105248   -0.169742   -0.309944 
H    -4.349286   0.667141    -1.660462 
H    -5.297254   -0.796692   -1.954787 
H    1.07724     -2.653236   0.462153  
C    -1.005031   -0.818696   4.154569  
H    -0.798353   -0.047117   4.895845  
H    -1.932762   -1.342271   4.39798   
H    -0.198442   -1.558125   4.163075  
C    3.744672    -2.366989   0.392542  
C    5.069201    -2.089516   0.327744  
C    4.58231     0.265658    -0.191305 
C    5.538909    -0.760894   0.03398   
C    2.703079    2.33659     -0.608058 
C    4.030158    2.612003    -0.658016 
H    4.370805    3.627495    -0.842572 
C    5.020785    1.588643    -0.461534 
C    6.90138     -0.450105   -0.028706 
C    7.323591    0.847244    -0.301822 
C    6.393407    1.858558    -0.513462 
H    6.724698    2.872882    -0.719518 
H    1.984088    3.138633    -0.73199  
H    3.400923    -3.372465   0.620966  
H    5.806951    -2.868365   0.502366  
H    7.630752    -1.237422   0.142468  
H    8.384654    1.07157     -0.345744 
O    0.770409    3.126875    1.704091  
H    1.629399    2.717602    1.8762    
H    -0.070516   2.673058    -0.533071 
C    -2.525947   2.007743    -0.191971 
C    -2.734961   2.959354    -1.191741 
C    -3.443464   1.867386    0.851362  
C    -3.867193   3.76896     -1.147547 
H    -2.023923   3.041498    -2.009432 
C    -4.564989   2.686437    0.891298  
H    -3.246232   1.127547    1.621622  
C    -4.784295   3.633512    -0.109085 
H    -4.033695   4.501688    -1.930905 
H    -5.273414   2.585322    1.707651  
H    -5.667372   4.263525    -0.078148 
