55                                     
                                       
C    -3.056715   2.515628    1.473314  
C    -1.873736   2.972419    0.913079  
C    -0.908387   2.045533    0.498901  
C    -1.085421   0.654257    0.641267  
C    -2.300435   0.226192    1.181714  
C    -3.271      1.14039     1.594916  
O    -0.283021   -0.565668   -1.746745 
N    1.098559    1.387905    -0.552167 
C    0.319312    2.432784    -0.193662 
Co   0.422249    -0.387963   0.011667  
C    1.009652    -1.034499   1.951275  
C    0.286627    -2.096009   1.30058   
C    1.01814     -2.466321   0.146174  
C    2.177214    -1.642935   0.054279  
C    2.181458    -0.778794   1.193298  
C    0.630997    -0.374337   3.242868  
C    -0.936397   -2.792551   1.813941  
C    0.645123    -3.519492   -0.849414 
C    3.220824    -1.776619   -1.016724 
C    3.221424    0.247355    1.535026  
H    -1.393778   -2.236206   2.635753  
H    -1.675007   -2.910891   1.01669   
H    -0.669952   -3.784632   2.195534  
H    -0.388569   -3.840155   -0.714523 
H    0.746637    -3.138976   -1.871166 
H    1.307139    -4.387031   -0.745364 
H    2.789278    -1.657362   -2.017183 
H    4.022139    -1.041776   -0.899156 
H    3.68538     -2.768126   -0.97911  
H    -3.757382   -1.13006    -1.072375 
C    -1.385565   -1.215225   -1.922434 
O    -1.970035   -1.854032   -1.039142 
O    -4.412123   -0.414879   -1.171112 
H    -3.944176   0.350037    -0.808841 
H    2.768403    1.182096    1.880294  
H    2.763399    0.744012    -1.579843 
H    2.262026    4.831159    -1.566273 
H    0.134954    4.591215    -0.2784   
H    -1.712577   4.040103    0.78879   
C    2.196269    1.618364    -1.274226 
C    1.897963    3.851103    -1.268003 
H    1.001788    -0.953153   4.096288  
H    3.856989    0.484455    0.6777    
C    0.723523    3.723011    -0.54729  
H    -3.816583   3.219823    1.796073  
H    -2.518242   -0.83434    1.246982  
C    -1.972769   -1.150836   -3.317198 
H    -2.090603   -2.167476   -3.701714 
H    -2.972265   -0.712677   -3.234026 
H    -1.352382   -0.563071   -3.993084 
H    3.871366    -0.121669   2.335727  
H    1.052514    0.632594    3.311901  
H    -0.454012   -0.281384   3.337158  
N    2.64259     2.805438    -1.6511   
H    -4.212437   0.775228    1.995941  
