54                                     
                                       
C    -3.095954   2.718937    -0.35681  
C    -3.009374   1.452599    -0.929188 
C    -1.847047   0.719337    -0.719061 
C    -0.742941   1.195358    -0.007608 
C    -0.8796     2.454457    0.573936  
C    -2.040105   3.212946    0.406531  
O    0.2895      -0.638987   1.819428  
N    -0.522589   -1.199316   -0.930471 
N    -1.706431   -0.61509    -1.181775 
Co   0.724769    -0.051374   0.060185  
C    2.064629    0.30642     -1.543387 
C    2.104655    1.43528     -0.68259  
C    2.486667    0.980788    0.612809  
C    2.818706    -0.414427   0.508273  
C    2.55688     -0.831656   -0.808574 
C    1.662589    0.309918    -2.987899 
C    1.804095    2.842406    -1.099526 
C    2.616487    1.772484    1.87917   
C    3.274162    -1.249131   1.663325  
C    2.771693    -2.200928   -1.380407 
H    0.882958    2.907576    -1.684224 
H    1.693437    3.504391    -0.238621 
H    2.6284      3.224128    -1.712361 
H    2.256345    2.796648    1.753673  
H    2.03532     1.303011    2.680141  
H    3.661703    1.826523    2.203719  
H    2.505906    -1.254667   2.443603  
H    3.468399    -2.280822   1.360731  
H    4.197821    -0.842001   2.088533  
H    -3.628509   -1.18236    0.954209  
C    -0.852282   -1.087562   2.234405  
O    -1.845002   -1.284882   1.539567  
H    1.105957    -0.596811   -3.245027 
H    1.01712     1.163976    -3.21086  
H    2.537216    0.367412    -3.645639 
H    2.610514    -2.984337   -0.633949 
C    -0.650213   -2.478019   -1.265176 
H    -3.838977   1.039362    -1.493371 
H    2.099418    -2.38811    -2.222348 
H    3.79698     -2.303792   -1.753159 
H    -3.993169   3.312408    -0.501109 
H    -0.069786   2.857246    1.178858  
H    -2.11987    4.191677    0.870393  
C    -0.878113   -1.367918   3.728778  
H    -0.743446   -0.429678   4.274623  
H    -1.826351   -1.82486    4.010854  
H    -0.0481     -2.025939   3.999053  
H    -2.356239   -3.661873   -2.082462 
H    0.178648    -3.1581     -1.134421 
C    -1.944505   -2.72536    -1.742195 
C    -2.594888   -1.508887   -1.653756 
H    -3.622224   -1.232137   -1.827686 
O    -4.418795   -0.776372   0.551557  
H    -4.353954   0.138759    0.856844  
