58                                     
                                       
C    3.688613    -0.282094   -0.814279 
C    2.853702    0.773794    -1.185342 
C    1.509733    0.710877    -0.85997  
C    0.927271    -0.385031   -0.209159 
C    1.779123    -1.40884    0.171978  
C    3.150644    -1.367828   -0.121634 
O    -0.768108   0.329596    1.884984  
N    -0.664585   1.569193    -0.755502 
N    0.614076    1.783968    -1.106394 
Co   -0.970765   -0.189843   0.063851  
C    -2.047562   -1.03247    -1.557399 
C    -1.365889   -2.085319   -0.892286 
C    -1.798275   -2.093126   0.466369  
C    -2.855969   -1.128006   0.595459  
C    -3.006011   -0.471146   -0.638681 
C    -1.865658   -0.625073   -2.988894 
C    -0.381884   -3.012853   -1.536905 
C    -1.334895   -2.974319   1.587162  
C    -3.575102   -0.848037   1.877107  
C    -3.999874   0.599753    -0.975683 
H    0.344828    -2.474154   -2.150247 
H    0.177689    -3.587996   -0.797049 
H    -0.91695    -3.721107   -2.179497 
H    -0.477694   -3.584802   1.292692  
H    -1.038956   -2.366558   2.44892   
H    -2.131768   -3.654634   1.908069  
H    -2.865101   -0.494564   2.632161  
H    -4.348404   -0.087589   1.744783  
H    -4.055953   -1.758008   2.251703  
H    2.107814    3.064495    1.058858  
C    -0.025388   1.283127    2.349703  
O    0.631675    2.076493    1.681893  
H    -1.920478   0.4625      -3.099916 
H    -0.889211   -0.943401   -3.364082 
H    -2.634674   -1.069687   -3.630626 
H    -4.215565   1.240828    -0.115784 
C    -1.297468   2.730077    -0.890944 
H    -3.637776   1.232448    -1.790828 
H    -4.946125   0.155272    -1.30408  
H    4.74126     -0.237852   -1.065521 
H    1.416073    -2.27621    0.717861  
C    -0.02386    1.354195    3.868753  
H    0.426353    0.44271     4.272295  
H    0.540476    2.223563    4.205327  
H    -1.050485   1.404801    4.240837  
H    -0.615839   4.753713    -1.536378 
H    -2.346958   2.806758    -0.647577 
C    -0.407911   3.714431    -1.338754 
C    0.811688    3.070145    -1.445569 
H    1.799267    3.439278    -1.671181 
O    2.955888    3.208615    0.599002  
H    3.414082    2.372421    0.75958   
H    3.269734    1.640023    -1.689397 
O    3.875534    -2.439174   0.302972  
C    5.261824    -2.425281   0.05243   
H    5.745423    -1.56411    0.529958  
H    5.657936    -3.346097   0.480622  
H    5.474217    -2.404513   -1.023803 
