56                                     
                                       
C    -3.698918   0.565629    -0.961739 
C    -2.999822   -0.615302   -1.181645 
C    -1.646407   -0.632454   -0.862608 
C    -0.943176   0.463719    -0.342675 
C    -1.682612   1.61332     -0.111137 
C    -3.046929   1.676469    -0.427454 
O    0.511594    -0.20526    1.912388  
N    0.41717     -1.704125   -0.591529 
N    -0.860764   -1.804087   -0.99822  
Co   0.897906    0.083334    0.068158  
C    2.162021    0.622886    -1.542965 
C    1.569065    1.80986     -1.035368 
C    1.9154      1.913152    0.343668  
C    2.841105    0.854924    0.643979  
C    2.989971    0.059438    -0.505967 
C    2.024572    0.09199     -2.938664 
C    0.741713    2.768994    -1.835494 
C    1.492057    2.954568    1.335683  
C    3.442891    0.633896    1.995599  
C    3.876415    -1.140379   -0.660222 
H    0.006868    2.252897    -2.458567 
H    0.197588    3.468331    -1.198035 
H    1.396554    3.353283    -2.491639 
H    0.742077    3.631106    0.918971  
H    1.064023    2.47954     2.224907  
H    2.346704    3.562211    1.653335  
H    2.650906    0.463683    2.73225   
H    4.112387    -0.229564   1.999977  
H    4.020399    1.511864    2.304143  
H    -2.721397   -2.368413   1.088936  
C    -0.392247   -0.979703   2.419102  
O    -1.096718   -1.772297   1.796668  
H    1.962365    -1.000981   -2.942792 
H    1.116826    0.473547    -3.413908 
H    2.877955    0.383422    -3.56118  
H    3.927109    -1.731968   0.258881  
C    0.931773    -2.924834   -0.6499   
H    -3.507922   -1.504945   -1.534892 
H    3.526321    -1.789995   -1.467205 
H    4.897341    -0.832011   -0.911755 
H    -4.760088   0.61858     -1.191713 
H    -1.230508   2.497198    0.332682  
C    -0.535418   -0.830071   3.925007  
H    -0.953367   0.156336    4.146781  
H    -1.195359   -1.601832   4.320569  
H    0.444963    -0.886972   4.404303  
H    0.080867    -4.896769   -1.261066 
H    1.956428    -3.096297   -0.354732 
C    -0.033357   -3.835759   -1.10676  
C    -1.171209   -3.07871    -1.303454 
H    -2.173937   -3.35146    -1.588583 
C    -3.799762   2.92647     -0.191057 
O    -3.312062   3.949732    0.232999  
H    -4.881778   2.875686    -0.438524 
O    -3.361826   -2.950869   0.636882  
H    -3.192316   -3.808083   1.049777  
