70                                     
                                       
C    0.747847    3.387371    -0.071428 
C    -0.368566   2.570478    -0.211977 
C    -0.201996   1.182343    -0.205285 
C    1.066142    0.581211    -0.069254 
C    2.165805    1.414557    0.10585   
C    1.996939    2.796306    0.097316  
O    1.560423    -1.677681   1.64397   
N    -0.895452   -1.065983   0.120114  
C    -1.265309   0.184024    -0.129749 
Co   1.033392    -1.346938   -0.151062 
C    0.975646    -1.760682   -2.22792  
C    2.270325    -1.249053   -1.923386 
C    2.850066    -2.098528   -0.945476 
C    1.96608     -3.221948   -0.753117 
C    0.830251    -3.024849   -1.557486 
C    -0.020766   -1.150994   -3.168272 
C    2.888789    -0.045314   -2.563976 
C    4.16331     -1.940406   -0.241101 
C    2.244016    -4.335886   0.206978  
C    -0.328465   -3.952625   -1.7603   
H    2.16028     0.755978    -2.712729 
H    3.709168    0.362224    -1.969588 
H    3.291308    -0.32712    -3.543726 
H    4.618732    -0.969693   -0.454099 
H    4.019169    -2.018192   0.84167   
H    4.872956    -2.716123   -0.549731 
H    2.371769    -3.929941   1.216171  
H    1.427693    -5.062047   0.229278  
H    3.160961    -4.867041   -0.070502 
H    -1.278192   0.780185    2.715457  
C    1.08382     -1.105779   2.70238   
O    0.232292    -0.223957   2.723461  
H    -1.042489   -1.420108   -2.879541 
H    0.048929    -0.058194   -3.157069 
H    0.135148    -1.487434   -4.199693 
H    -0.351838   -4.747901   -1.012022 
C    -2.040171   -1.781512   0.389827  
H    -1.351904   3.021489    -0.29916  
H    -1.286641   -3.427345   -1.719513 
H    -0.251427   -4.425203   -2.74632  
H    0.652887    4.467013    -0.07553  
H    3.160486    1.003107    0.257117  
C    1.695738    -1.627799   3.993196  
H    1.2487      -1.127815   4.851898  
H    1.538818    -2.707544   4.06531   
H    2.775314    -1.454094   3.981819  
C    -3.143854   -0.924585   0.231143  
C    -2.226778   -3.104087   0.801517  
C    -4.455625   -1.352954   0.42291   
C    -3.528229   -3.532923   1.006979  
H    -3.708233   -4.551773   1.333859  
C    -4.626487   -2.673218   0.811968  
H    -1.372057   -3.75333    0.965282  
H    -5.629575   -3.049323   0.983826  
H    -5.294295   -0.67787    0.288863  
O    -1.863416   1.531442    2.502957  
H    -1.228289   2.242543    2.340824  
N    -2.618427   0.310137    -0.123893 
C    -3.385811   1.476735    -0.420082 
C    -3.436651   1.928294    -1.736987 
C    -4.075632   2.127863    0.599614  
C    -4.180004   3.064962    -2.038323 
H    -2.888276   1.391091    -2.505621 
C    -4.828333   3.255592    0.281459  
H    -3.960954   1.773694    1.618379  
C    -4.878674   3.725492    -1.02951  
H    -4.218413   3.429625    -3.059632 
H    -5.366002   3.777648    1.066419  
H    -5.461488   4.610184    -1.265888 
Br   3.515383    3.911731    0.314891  
