59                                     
                                       
C    -1.770618   3.866623    -0.750026 
C    -2.162189   2.599713    -1.174166 
C    -1.351841   1.503078    -0.879758 
C    -0.13261    1.636551    -0.187395 
C    0.212709    2.909821    0.261138  
C    -0.593844   4.016735    -0.017527 
O    0.363194    -0.185059   1.920416  
N    -0.847583   -0.776023   -0.679305 
C    -1.760821   0.110205    -1.065665 
Co   0.80486     -0.037108   0.065226  
C    2.065173    -0.177488   -1.627846 
C    2.628558    0.800934    -0.755061 
C    2.881503    0.17494     0.48991   
C    2.598374    -1.233168   0.345709  
C    2.128377    -1.44779    -0.96278  
C    1.606902    0.049525    -3.036837 
C    2.931409    2.213954    -1.144889 
C    3.38649     0.796187    1.756171  
C    2.746933    -2.223144   1.459858  
C    1.727891    -2.741167   -1.605276 
H    2.104568    2.672512    -1.692557 
H    3.145116    2.840282    -0.276365 
H    3.8177      2.224544    -1.789747 
H    3.429521    1.885541    1.678062  
H    2.719375    0.544427    2.587094  
H    4.393013    0.436785    1.997973  
H    2.129312    -1.920802   2.313215  
H    2.442903    -3.227685   1.152843  
H    3.787974    -2.277976   1.796108  
H    -3.354652   0.482934    1.369138  
C    -0.806163   -0.320475   2.457957  
O    -1.844068   -0.630155   1.872148  
H    0.790048    -0.631804   -3.294278 
H    1.233476    1.069538    -3.165582 
H    2.41888     -0.108136   -3.756491 
H    1.757402    -3.573141   -0.897637 
H    0.718299    -2.682869   -2.02677  
H    2.413671    -2.97717    -2.426378 
H    -2.393359   4.72904     -0.966664 
H    1.118945    3.052641    0.847059  
C    -0.814278   -0.059044   3.955948  
H    -0.672061   1.0123      4.127751  
H    -1.763721   -0.372247   4.389672  
H    0.017056    -0.580753   4.436241  
C    -2.743853   -1.858229   -1.024818 
C    -2.979704   -0.53261    -1.337419 
H    -3.919249   -0.081071   -1.613574 
O    -3.905298   1.224382    1.058328  
H    -3.275031   1.956659    1.017316  
H    -3.108675   2.456389    -1.688609 
H    -0.305215   4.999918    0.343975  
N    -1.449223   -1.985476   -0.638962 
N    -3.585374   -2.962999   -0.951556 
H    -4.533672   -2.734338   -1.22271  
H    -3.254078   -3.767922   -1.47313  
C    -0.944488   -3.043596   0.215482  
H    -1.691338   -3.252905   0.984481  
H    -0.722046   -3.94839    -0.357584 
H    -0.03419    -2.675571   0.691389  
