65                                     
                                       
C    3.10747     2.519006    -0.448231 
C    1.792405    2.940167    -0.317263 
C    0.777505    1.988386    -0.246571 
C    1.01481     0.596721    -0.287263 
C    2.338149    0.194575    -0.382702 
C    3.373865    1.141846    -0.474744 
O    -0.562748   -0.432444   1.769654  
N    -1.513073   1.384648    0.002227  
C    -0.607127   2.308028    -0.005024 
Co   -0.63643    -0.438061   -0.137407 
C    -0.442775   -1.288906   -2.083351 
C    0.032589    -2.233608   -1.107384 
C    -1.060789   -2.564127   -0.271069 
C    -2.206035   -1.835038   -0.699102 
C    -1.821027   -1.069783   -1.843575 
C    0.345965    -0.707032   -3.217475 
C    1.375442    -2.897692   -1.0905   
C    -1.044574   -3.512567   0.886423  
C    -3.572523   -2.00769    -0.100405 
C    -2.688021   -0.190428   -2.695065 
H    2.053478    -2.43883    -1.81382  
H    1.846932    -2.842214   -0.106883 
H    1.26524     -3.952939   -1.366861 
H    -0.022603   -3.770651   1.165681  
H    -1.528694   -3.065749   1.761222  
H    -1.589834   -4.429109   0.630553  
H    -3.64332    -1.583496   0.907795  
H    -4.344975   -1.544051   -0.719384 
H    -3.817292   -3.072587   -0.020102 
H    3.072046    -1.929481   1.612078  
C    0.40947     -0.995845   2.40339   
O    1.257785    -1.729613   1.89304   
H    -0.051693   0.269152    -3.510952 
H    1.393219    -0.56475    -2.940288 
H    0.307215    -1.364757   -4.09382  
H    -2.875034   3.909206    -0.449644 
H    -3.729725   -0.217583   -2.368382 
C    -2.735522   1.972834    0.59545   
H    1.55402     3.998668    -0.261313 
H    -2.354427   0.852315    -2.669159 
H    -2.654091   -0.526424   -3.736889 
C    -2.428199   3.480509    0.454698  
H    3.905958    3.247843    -0.511592 
H    2.643569    -0.846453   -0.349938 
C    0.453347    -0.668302   3.885413  
H    1.087637    -1.380742   4.412999  
H    0.869267    0.336844    4.007757  
H    -0.55439    -0.664698   4.306377  
H    -2.716644   4.069809    1.326923  
O    -0.999176   3.546008    0.317957  
O    3.892557    -2.299651   1.237493  
H    3.823427    -3.239499   1.449968  
O    4.617636    0.625854    -0.587024 
C    5.709602    1.516271    -0.607393 
H    5.744695    2.124408    0.304484  
H    6.602617    0.894428    -0.662369 
H    5.671366    2.178406    -1.481401 
C    -2.832856   1.558671    2.06563   
H    -2.904958   0.472235    2.152088  
H    -1.936205   1.866528    2.611079  
H    -3.714278   2.020362    2.524543  
C    -4.005627   1.604962    -0.156147 
H    -4.863533   2.117059    0.292876  
H    -3.939729   1.895198    -1.207862 
H    -4.185843   0.52969     -0.096758 
