65                                     
                                       
C    1.073425    3.677032    -1.816628 
C    -0.10099    3.043993    -1.431052 
C    -0.049177   1.711466    -1.010367 
C    1.154402    0.985024    -0.95519  
C    2.321921    1.650936    -1.337213 
C    2.282519    2.979507    -1.769295 
H    2.369153    -2.203133   2.475015  
H    -1.030149   3.609612    -1.435785 
C    -1.197629   0.926853    -0.513083 
Co   0.920516    -0.731914   -0.104517 
C    2.577383    -1.961189   -0.382002 
C    1.930114    -1.785059   -1.63966  
C    0.583557    -2.223912   -1.494963 
C    0.440142    -2.815256   -0.185668 
C    1.66042     -2.654206   0.493026  
C    2.000999    -3.056536   1.895178  
C    3.995808    -1.630899   -0.025054 
C    2.531546    -1.239226   -2.896592 
C    -0.49885    -2.16719    -2.5295   
C    -0.839144   -3.407894   0.322242  
H    -1.656203   -2.678847   0.270799  
H    -1.124996   -4.269406   -0.289453 
H    -1.467225   -1.950208   -2.06774  
H    -0.296389   -1.393572   -3.274835 
H    -0.584244   -3.124243   -3.055002 
H    1.853284    -0.553921   -3.410464 
H    3.466094    -0.708916   -2.705514 
H    2.754288    -2.069688   -3.575044 
H    4.055915    -1.155317   0.958734  
O    0.733072    1.354379    3.344601  
C    0.652825    0.296388    2.602924  
H    1.25923     2.06092     2.839902  
O    -0.947631   -0.181134   0.04269   
H    1.142452    -3.484102   2.417284  
O    1.347356    0.192671    1.575379  
O    1.709839    3.023453    1.639844  
H    1.943663    2.456568    0.88484   
C    -0.290185   -0.756009   3.097982  
H    0.15292     -1.232669   3.978437  
H    -1.226666   -0.289379   3.409519  
H    -0.47208    -1.504279   2.326518  
H    4.607656    -2.538747   0.005025  
H    2.794965    -3.810339   1.884608  
H    -0.745678   -3.751875   1.354969  
H    4.448271    -0.953974   -0.753393 
N    -2.447658   1.370219    -0.652364 
H    -2.55849    2.229084    -1.177083 
C    -3.663121   0.722606    -0.292195 
C    -4.811181   1.113761    -0.982891 
C    -3.738382   -0.236242   0.719445  
C    -6.036484   0.539028    -0.671093 
H    -4.743979   1.862339    -1.768422 
C    -4.972802   -0.807217   1.01643   
H    -2.851786   -0.524148   1.267174  
C    -6.120982   -0.428033   0.327534  
H    -6.924401   0.847206    -1.212605 
H    -5.0342     -1.55203    1.803202  
H    -7.076963   -0.879074   0.570148  
H    1.051656    4.711285    -2.142768 
H    3.281879    1.141032    -1.293484 
H    3.201116    3.478492    -2.064966 
C    2.557058    4.167863    1.67059   
H    2.433818    4.756186    0.756692  
H    2.248211    4.769801    2.525059  
H    3.608332    3.886996    1.789589  
