58                                     
                                       
C    -2.735517   -1.858732   -2.483294 
C    -2.618658   -2.117465   -1.122399 
C    -1.609602   -1.483676   -0.388211 
C    -0.690697   -0.611247   -0.97596  
C    -0.858031   -0.352627   -2.340131 
C    -1.861737   -0.95962    -3.092693 
H    2.830452    2.698205    -0.171031 
H    -3.308557   -2.802308   -0.633019 
N    -1.604133   -1.69815    1.022479  
Co   0.751005    0.111736    0.064545  
C    2.846871    0.596117    0.253191  
C    2.53034     0.00688     -1.030248 
C    2.068737    -1.316705   -0.804622 
C    1.955428    -1.494815   0.60725   
C    2.50481     -0.326614   1.252557  
C    2.598012    -0.153155   2.736955  
C    3.403421    1.975545    0.417492  
C    2.768133    0.682614    -2.346708 
C    1.735631    -2.343657   -1.840533 
C    1.528249    -2.747368   1.312336  
H    2.965906    0.838643    3.004789  
H    1.620389    -0.286043   3.211993  
H    3.281788    -0.89418    3.162973  
H    1.109169    -2.525399   2.299452  
H    0.776341    -3.295958   0.738717  
H    2.385745    -3.411901   1.464143  
H    0.879756    -2.955049   -1.542762 
H    1.496175    -1.886765   -2.802741 
H    2.596268    -3.006275   -1.982433 
H    -1.907313   1.577848    0.351702  
C    -0.542013   2.778533    -0.374763 
O    -1.738912   2.514025    0.066724  
O    -0.426704   0.157309    1.611355  
H    2.332232    0.11763     -3.173739 
O    0.388161    1.970311    -0.437481 
O    -3.343131   0.560844    0.791679  
H    -3.552694   0.035744    0.002226  
H    -1.95762    -0.742459   -4.151669 
C    -0.367615   4.198938    -0.814803 
H    -1.134656   4.449051    -1.551405 
H    -0.511094   4.857951    0.045845  
H    0.626072    4.343518    -1.234542 
H    3.390131    2.298803    1.459986  
H    4.440191    2.00606     0.066321  
H    -2.228518   -2.416135   1.369724  
C    -1.172934   -0.803473   1.917688  
H    2.33565     1.688529    -2.354525 
C    -1.653693   -0.940953   3.329999  
H    -1.957749   -1.961802   3.569396  
H    -0.875466   -0.612879   4.019536  
H    -2.519903   -0.280415   3.443788  
H    3.841505    0.780012    -2.540121 
H    -3.510911   -2.35148    -3.060125 
H    -0.173111   0.335515    -2.834262 
C    -4.394517   1.503641    1.017536  
H    -4.107928   2.088233    1.892167  
H    -4.514648   2.179038    0.165451  
H    -5.338844   0.99157     1.222065  
