64                                     
                                       
C    -3.234564   1.932583    -0.615533 
C    -2.941547   0.733882    -1.258938 
C    -1.677249   0.159586    -1.021075 
C    -0.727882   0.747874    -0.186719 
C    -1.089311   1.937522    0.45198   
C    -2.326671   2.550262    0.252156  
H    3.498352    0.058897    2.213816  
C    -3.959621   0.059992    -2.147112 
N    -1.433207   -1.127114   -1.591174 
Co   1.003694    -0.051856   0.016353  
C    3.152882    0.143529    0.099087  
C    2.49009     1.419669    -0.066356 
C    1.809092    1.403749    -1.310986 
C    1.922936    0.083199    -1.843927 
C    2.816688    -0.666743   -0.995362 
C    3.218149    -2.087504   -1.24528  
C    4.005786    -0.200598   1.279867  
C    2.6148      2.56197     0.895833  
C    1.082311    2.541387    -1.956169 
C    1.379967    -0.39017    -3.159131 
H    3.836539    -2.479932   -0.436341 
H    2.340469    -2.735571   -1.338453 
H    3.790459    -2.161743   -2.175376 
H    1.221195    -1.473626   -3.157525 
H    0.428405    0.092778    -3.397839 
H    2.083801    -0.164425   -3.967607 
H    0.183056    2.201666    -2.476713 
H    0.776433    3.293145    -1.225789 
H    1.740545    3.023145    -2.687349 
H    -1.175342   -1.284501   1.726926  
C    0.23103     -0.54222    2.864261  
O    -0.881361   -1.193094   2.669839  
O    0.178479    -1.805299   -0.136701 
H    1.92732     3.373692    0.647486  
O    0.942441    -0.067071   1.975434  
O    -2.744682   -1.736772   0.878763  
H    -3.135316   -0.870905   0.676219  
H    1.482583    0.218386    4.415489  
H    -0.237386   -0.00429    4.870248  
H    0.811876    -1.411854   4.708954  
H    4.250244    -1.26406    1.309903  
H    4.944601    0.36191     1.242655  
H    -2.095267   -1.449441   -2.285168 
C    -0.663394   -2.063299   -1.032856 
H    2.402834    2.236403    1.919566  
C    -0.861628   -3.484548   -1.464849 
H    -1.349037   -3.561775   -2.438542 
H    0.097475    -4.003142   -1.486816 
H    -1.496937   -3.967846   -0.715038 
H    -4.204486   2.394073    -0.787717 
H    -3.599371   -0.051418   -3.177274 
H    -4.225377   -0.937267   -1.773069 
H    -4.87814    0.647572    -2.192572 
C    -2.678465   3.852226    0.923766  
H    -1.978183   4.085093    1.729438  
H    -2.650759   4.67944     0.20668   
H    -3.687086   3.821853    1.345759  
H    3.631036    2.969446    0.879101  
C    0.604307    -0.415485   4.308652  
H    -0.375577   2.415119    1.124229  
C    -3.535675   -2.383612   1.878166  
H    -4.548171   -2.574363   1.51113   
H    -3.05005    -3.335531   2.09495   
H    -3.579231   -1.79265    2.797803  
