70                                     
                                       
C    1.965749    -3.381534   -1.192523 
C    2.299077    -2.046216   -1.413864 
C    1.369498    -1.067705   -1.009917 
C    0.141317    -1.380242   -0.426132 
C    -0.131398   -2.73249    -0.198527 
C    0.765412    -3.728719   -0.574009 
H    -3.818037   0.326907    1.953826  
C    3.634135    -1.665856   -2.004724 
N    1.795337    0.290783    -1.106292 
Co   -1.108121   0.011105    -0.012141 
C    -3.146292   0.725025    -0.045834 
C    -3.022321   -0.599231   -0.60865  
C    -2.200982   -0.507095   -1.76356  
C    -1.701649   0.830749    -1.831685 
C    -2.35133    1.600444    -0.799056 
C    -2.168279   3.064803    -0.53702  
C    -3.966818   1.063214    1.158639  
C    -3.740096   -1.806721   -0.085893 
C    -1.893827   -1.602059   -2.736271 
C    -0.799339   1.373895    -2.899689 
H    -3.091838   3.606977    -0.763735 
H    -1.911659   3.262398    0.508265  
H    -1.377518   3.484153    -1.161309 
H    -0.168498   2.18413     -2.519763 
H    -0.140867   0.595896    -3.295275 
H    -1.385322   1.775399    -3.733223 
H    -0.861269   -1.551928   -3.091387 
H    -2.041543   -2.589141   -2.29402  
H    -2.558692   -1.513009   -3.602304 
H    1.068713    -0.374109   2.154486  
C    -0.725611   -0.479539   2.922382  
O    0.567506    -0.355452   3.014758  
O    0.377884    1.183361    0.425501  
H    -3.397861   -2.722135   -0.573642 
O    -1.363154   -0.508796   1.86576   
O    2.65468     -0.834121   1.508105  
H    2.54857     -1.66709    1.019682  
H    -2.422748   -0.97382    4.114086  
H    -0.841035   -1.168116   4.943636  
H    -1.500086   0.446325    4.658768  
H    -3.713297   2.050914    1.551247  
H    -5.031418   1.066425    0.901164  
H    2.641712    0.458314    -1.632945 
C    1.410842    1.272776    -0.287012 
H    -3.586184   -1.916903   0.992666  
H    0.532818    -4.773563   -0.394126 
C    2.289868    2.510003    -0.151719 
C    2.981262    2.375242    1.219715  
C    3.348084    2.614143    -1.254871 
C    1.403097    3.760631    -0.167125 
H    2.241033    2.281623    2.020152  
H    3.631885    1.495994    1.239328  
H    3.587169    3.266973    1.405527  
H    2.898256    2.629134    -2.254433 
H    3.89967     3.549783    -1.131583 
H    4.088273    1.806414    -1.201735 
H    2.015807    4.640919    0.046993  
H    0.940084    3.907273    -1.149138 
H    0.615955    3.691642    0.586355  
H    2.665592    -4.154873   -1.495819 
H    3.529546    -1.0766     -2.924047 
H    4.231582    -1.080948   -1.292661 
H    4.209886    -2.557024   -2.260425 
H    -4.81733    -1.719077   -0.261662 
H    -1.069895   -3.013582   0.276597  
C    -1.42228    -0.564597   4.245654  
C    3.466       -1.061432   2.662809  
H    4.463059    -1.406119   2.374916  
H    3.553729    -0.103822   3.177936  
H    3.003631    -1.785903   3.339752  
