60                                     
                                       
C    -1.681912   3.444189    1.099038  
C    -0.618436   3.605876    0.228024  
C    0.184555    2.509465    -0.113146 
C    -0.032883   1.223066    0.393055  
C    -1.128519   1.103975    1.26559   
C    -1.939697   2.179308    1.625177  
C    1.512798    -2.331202   0.501333  
H    -0.406171   4.586352    -0.193126 
N    1.243492    2.801271    -1.022143 
Co   1.095032    -0.296787   -0.062898 
C    -0.272713   -2.077671   2.376783  
C    0.901759    -3.525996   -0.164095 
C    3.639361    -2.040613   -0.984877 
C    4.019654    0.413556    0.959165  
H    -0.556506   -1.346923   3.137418  
H    -1.141085   -2.267432   1.740873  
H    -0.027009   -3.009057   2.897999  
H    -0.182863   -3.53831    -0.023469 
H    1.112671    -3.54323    -1.236481 
H    1.302295    -4.446919   0.27272   
H    3.253292    -2.879119   -1.568175 
H    3.782172    -1.193288   -1.663365 
H    4.619255    -2.329867   -0.592182 
H    4.437955    0.461022    -0.04979  
H    3.706142    1.420787    1.249983  
H    4.819942    0.10505     1.639931  
H    2.059646    1.402006    2.833249  
H    0.58084     0.576601    3.320931  
H    2.144654    0.035045    3.954439  
C    -1.237037   -1.218829   -1.544102 
O    -1.872866   -1.348129   -0.406345 
H    -2.864132   -1.491851   -0.536292 
O    -4.431746   -1.310508   -0.676254 
O    -0.05811    -0.866441   -1.55481  
H    -3.384385   0.553456    0.357194  
H    -2.299124   4.29464     1.367354  
H    -1.348281   0.129801    1.695743  
H    -2.764576   2.034516    2.317175  
C    -1.966262   -1.547406   -2.812593 
H    -2.120801   -2.630449   -2.857759 
H    -2.952345   -1.076333   -2.820809 
H    -1.378205   -1.227492   -3.670398 
C    1.797746    -0.534091   1.930143  
C    2.879724    -0.556539   1.015804  
H    1.346637    3.775394    -1.277047 
C    2.069544    1.941653    -1.618357 
O    2.056727    0.711346    -1.405406 
C    3.072207    2.48811     -2.594781 
H    2.968567    3.561108    -2.761671 
H    4.076871    2.277184    -2.218689 
H    2.95584     1.959592    -3.543583 
C    1.631915    0.424112    3.068089  
C    2.710577    -1.68188    0.134476  
C    -4.99918    -0.354148   -0.163432 
O    -4.356831   0.65513     0.408516  
C    -6.486122   -0.19923    -0.114791 
H    -6.959399   -1.045876   -0.607586 
H    -6.807673   -0.138614   0.928222  
H    -6.771088   0.736793    -0.601482 
C    0.914449    -1.610941   1.586217  
