64                                     
                                       
C    -1.709797   3.267147    0.069232  
C    -0.466959   3.422851    -0.533812 
C    0.44709     2.370657    -0.570867 
C    0.181544    1.129568    0.027035  
C    -1.067648   1.005797    0.633004  
C    -2.012427   2.032799    0.63705   
C    1.86008     -2.227224   0.923879  
H    -0.222634   4.375362    -0.998808 
N    1.662697    2.623217    -1.273927 
Co   1.42856     -0.35784    -0.053762 
C    -0.087968   -1.682757   2.572172  
C    1.360302    -3.559168   0.454892  
C    4.095492    -2.120939   -0.423951 
C    4.235704    0.668313    1.041878  
H    -0.540103   -0.790656   3.011953  
H    -0.837536   -2.177077   1.950429  
H    0.167881    -2.358873   3.395202  
H    0.272904    -3.62186    0.539643  
H    1.635993    -3.748345   -0.585879 
H    1.791651    -4.358203   1.067096  
H    3.784307    -3.070464   -0.864198 
H    4.269873    -1.411605   -1.239791 
H    5.047186    -2.287401   0.090563  
H    4.769033    0.512135    0.100447  
H    3.864242    1.697951    1.062544  
H    4.958197    0.560846    1.857605  
H    2.152852    1.888632    2.566085  
H    0.581144    1.176823    2.936899  
H    1.999809    0.7496      3.911397  
C    -0.754956   -1.578504   -1.516003 
O    -1.378152   -1.751201   -0.378734 
H    -2.367265   -1.816005   -0.496793 
O    -3.966966   -1.695023   -0.792488 
O    0.419187    -1.205812   -1.521678 
H    -4.172006   0.259889    0.571927  
H    -2.412127   4.091544    0.07329   
H    -1.353064   0.079927    1.121142  
C    -1.503413   -1.84417    -2.786634 
H    -1.979336   -2.826953   -2.745182 
H    -2.300461   -1.100402   -2.88596  
H    -0.825788   -1.778152   -3.635343 
C    1.963339    -0.175657   1.989331  
C    3.123945    -0.324732   1.192139  
H    1.816846    3.58085     -1.562916 
C    2.537676    1.719245    -1.715558 
O    2.460784    0.499594    -1.452412 
C    3.676635    2.198232    -2.570404 
H    3.61084     3.258471    -2.818788 
H    4.615642    2.0091      -2.043148 
H    3.688672    1.609366    -3.490244 
C    3.063874    -1.600167   0.530174  
C    1.653819    0.974168    2.89663   
O    -3.217525   1.720682    1.211145  
C    -4.179449   2.760727    1.341033  
H    -5.035457   2.317048    1.848001  
H    -3.77583    3.580926    1.942254  
H    -4.488271   3.133792    0.358747  
C    -5.008344   -1.172066   -0.421097 
O    -5.061421   -0.098816   0.346077  
C    -6.366844   -1.686444   -0.791179 
H    -6.940234   -0.893248   -1.276733 
H    -6.269729   -2.546145   -1.450893 
H    -6.903259   -1.968339   0.118784  
C    1.148098    -1.341804   1.795129  
