63                                     
                                       
C    -1.027664   3.494399    -0.57928  
C    0.216097    3.392241    -1.182391 
C    0.980352    2.230493    -1.021725 
C    0.564191    1.152099    -0.231343 
C    -0.6914     1.293849    0.362105  
C    -1.480305   2.426196    0.187298  
C    1.796977    -2.18747    1.277961  
H    0.586959    4.210484    -1.794937 
N    2.213087    2.199455    -1.732105 
Co   1.597872    -0.468496   -0.000697 
C    -0.175981   -1.22524    2.689509  
C    1.188608    -3.525361   0.989197  
C    4.101665    -2.491257   0.08778   
C    4.422991    0.479993    1.101531  
H    -0.567411   -0.243389   2.967021  
H    -0.935185   -1.740142   2.096952  
H    -0.029564   -1.790594   3.616242  
H    0.097867    -3.459999   0.956394  
H    1.538624    -3.931233   0.036824  
H    1.454806    -4.237357   1.777551  
H    3.730879    -3.472547   -0.214869 
H    4.381351    -1.941851   -0.817207 
H    5.006187    -2.645418   0.684519  
H    4.993282    0.126979    0.238175  
H    4.146891    1.525304    0.929314  
H    5.085394    0.452224    1.972945  
H    2.364316    2.103839    2.265149  
H    0.745961    1.566999    2.721229  
H    2.125916    1.207706    3.772309  
C    -0.661747   -1.733091   -1.355134 
O    -1.396425   -1.529073   -0.292839 
H    -2.365879   -1.714317   -0.45936  
O    -3.894762   -2.096817   -0.819844 
O    0.536189    -1.444203   -1.341846 
H    -4.60029    -0.062584   0.139142  
H    -1.634466   4.383774    -0.707734 
H    -1.082233   0.489868    0.976396  
C    -1.313164   -2.316794   -2.572651 
H    -0.558114   -2.53836    -3.323995 
H    -1.871837   -3.216753   -2.304059 
H    -2.03386    -1.595232   -2.970237 
C    2.040041    -0.010768   2.026109  
C    3.217215    -0.379945   1.329704  
H    2.476452    3.056661    -2.201804 
C    2.983751    1.131422    -1.965    
O    2.769665    0.005385    -1.472451 
C    4.170161    1.306201    -2.869784 
H    4.242158    2.307492    -3.296458 
H    5.078684    1.089288    -2.301768 
H    4.100173    0.571771    -3.67544  
C    3.073662    -1.739606   0.877362  
C    1.80238     1.289192    2.728944  
C    -2.855909   2.416525    0.774957  
F    -2.880876   1.875252    1.998896  
F    -3.410053   3.622908    0.834381  
F    -3.688369   1.641701    0.014343  
C    -5.046836   -1.784112   -0.550422 
O    -5.379814   -0.636375   0.012599  
C    -6.230586   -2.658496   -0.8254   
H    -6.920543   -2.135073   -1.492053 
H    -5.9035     -3.593686   -1.274842 
H    -6.762205   -2.850482   0.11006   
C    1.127152    -1.113845   1.954764  
