63                                     
                                       
C    1.663968    3.242013    -1.183596 
C    0.593229    3.463191    -0.32739  
C    -0.204266   2.357078    0.038673  
C    0.026844    1.054451    -0.416528 
C    1.130266    0.896656    -1.271783 
C    1.936709    1.962691    -1.660532 
C    -1.532875   -2.499239   -0.465812 
C    0.307329    4.853485    0.186521  
N    -1.282248   2.656654    0.925071  
Co   -1.096781   -0.459205   0.069125  
C    0.254785    -2.288749   -2.345812 
C    -0.933254   -3.690136   0.216969  
C    -3.657499   -2.169271   1.014153  
C    -4.012168   0.263663    -0.963736 
H    0.552309    -1.565778   -3.108625 
H    1.118093    -2.488268   -1.706077 
H    -0.003234   -3.218916   -2.863297 
H    0.1513      -3.714466   0.077495  
H    -1.144787   -3.690077   1.289381  
H    -1.34184    -4.613618   -0.206796 
H    -3.281861   -3.006691   1.605759  
H    -3.788206   -1.313192   1.684107  
H    -4.641566   -2.44973    0.625537  
H    -4.445461   0.312625    0.038864  
H    -3.682565   1.268351    -1.246258 
H    -4.805792   -0.032724   -1.657532 
H    -2.047876   1.203023    -2.852549 
H    -0.574379   0.360166    -3.326506 
H    -2.141824   -0.179575   -3.953937 
C    1.23684     -1.379279   1.558125  
O    1.869174    -1.540767   0.422288  
H    2.859265    -1.688905   0.553245  
O    4.428966    -1.504713   0.688395  
O    0.062265    -1.01385    1.563041  
H    3.374198    0.34801     -0.362193 
H    1.354127    -0.09241    -1.663469 
C    1.964703    -1.688535   2.832352  
H    2.102779    -2.77245    2.902897  
H    2.957833    -1.232521   2.827218  
H    1.383545    -1.339624   3.683544  
C    -1.800669   -0.721188   -1.921222 
C    -2.88227    -0.719173   -1.005618 
H    -1.420263   3.635012    1.13944   
C    -2.086497   1.803238    1.559197  
O    -2.044936   0.564993    1.404595  
C    -3.102801   2.369067    2.51084   
H    -3.019206   3.449509    2.636433  
H    -4.102484   2.125516    2.141079  
H    -2.9801     1.880013    3.479764  
C    -2.725244   -1.834775   -0.109855 
C    -1.626845   0.218819    -3.073002 
H    2.771232    1.802779    -2.337679 
H    2.285493    4.081144    -1.481291 
H    -0.679608   5.215749    -0.128336 
H    0.358315    4.906918    1.28097   
H    1.041815    5.560198    -0.203143 
C    4.99244     -0.55334    0.162193  
O    4.346685    0.449262    -0.417383 
C    6.479126    -0.397828   0.104157  
H    6.95552     -1.237597   0.605661  
H    6.795386    -0.350921   -0.941172 
H    6.765886    0.544686    0.577024  
C    -0.927592   -1.800118   -1.561442 
