75                                     
                                       
C    -1.227254   -0.964127   3.433688  
C    -1.554845   -0.111552   2.384809  
C    -0.591713   0.191109    1.406898  
C    0.686209    -0.399344   1.456473  
C    0.991246    -1.243474   2.521724  
C    0.048579    -1.519785   3.510978  
H    3.664174    -1.878924   -2.127303 
H    -2.570353   0.265591    2.329095  
C    -0.811357   0.899893    0.105678  
Co   1.704971    -0.104359   -0.134855 
C    3.764957    -0.238325   0.209785  
C    3.250475    0.857372    0.956504  
C    2.615905    1.74205     0.035344  
C    2.882093    1.267344    -1.300995 
C    3.576581    0.051595    -1.193413 
C    4.023643    -0.858989   -2.294494 
C    4.492474    -1.440398   0.732691  
C    3.34187     1.062014    2.43577   
C    1.866341    2.995915    0.372075  
C    2.397187    1.947183    -2.543859 
H    1.314211    2.102366    -2.502637 
H    2.874294    2.926263    -2.65307  
H    1.109602    3.209454    -0.389981 
H    1.357495    2.90735     1.337606  
H    2.540134    3.857425    0.426764  
H    2.443424    1.538372    2.835397  
H    3.487109    0.121499    2.970893  
H    4.197842    1.708955    2.65669   
H    4.138592    -2.356254   0.249101  
C    0.427434    -2.608655   -0.978054 
O    -0.744949   -2.154939   -0.613735 
H    -1.518375   -2.755879   -0.852359 
O    -3.043783   -3.194531   -0.994702 
O    1.444683    -1.939882   -0.80092  
H    -2.468315   -1.490661   0.544612  
H    -1.973297   -1.199259   4.185355  
H    1.969175    -1.718542   2.575482  
H    0.298375    -2.186853   4.330784  
C    0.482878    -3.971741   -1.603426 
H    1.498018    -4.194687   -1.925994 
H    0.154743    -4.717635   -0.872884 
H    -0.20094    -4.017659   -2.456008 
H    5.567282    -1.356035   0.539869  
H    5.117386    -0.892775   -2.333803 
H    2.620603    1.361745    -3.4375   
H    4.359016    -1.554365   1.811166  
N    -1.812274   1.741331    -0.1899   
C    -2.606451   2.400713    0.873809  
C    -4.065903   1.950101    0.88563   
C    -2.468474   3.929105    0.887183  
H    -2.131793   2.078185    1.797485  
H    -4.149201   0.859103    0.895685  
H    -4.56096    2.348657    1.776352  
H    -4.609792   2.325674    0.014367  
H    -1.436802   4.230986    0.684629  
H    -3.131608   4.429967    0.182356  
H    -2.731148   4.281848    1.888705  
C    -2.086109   1.915386    -1.647883 
C    -2.746689   3.22756     -2.049836 
C    -2.881826   0.702971    -2.140468 
H    -1.10621    1.892069    -2.125135 
H    -2.145503   4.093797    -1.768461 
H    -2.831432   3.224249    -3.140158 
H    -3.755662   3.344509    -1.647933 
H    -2.342667   -0.223074   -1.914476 
H    -3.868766   0.665237    -1.667553 
H    -3.020821   0.761026    -3.223701 
C    -3.828959   -2.471029   -0.400849 
O    -3.442287   -1.514619   0.442935  
O    0.023326    0.592064    -0.804075 
H    3.66112     -0.526339   -3.268851 
C    -5.31592    -2.554704   -0.538945 
H    -5.574579   -3.342762   -1.243082 
H    -5.76133    -2.755718   0.438641  
H    -5.701516   -1.592397   -0.886658 
