70                                     
                                       
C    -0.023159   -2.749839   2.501609  
C    -1.047958   -2.37817    1.64132   
C    -0.900767   -1.236423   0.840047  
C    0.220641    -0.392578   0.9647    
C    1.248296    -0.808861   1.815959  
C    1.138788    -1.981257   2.566751  
H    2.893724    2.632674    -1.426102 
H    -1.963294   -2.959999   1.637073  
C    -1.909256   -0.681114   -0.105171 
Co   -0.009712   1.265903    -0.011797 
C    1.393058    2.575865    0.864218  
C    0.188862    2.540419    1.655098  
C    -0.875372   2.998168    0.837229  
C    -0.354559   3.307947    -0.460819 
C    1.047427    3.078276    -0.422065 
C    2.004604    3.254772    -1.560585 
C    2.78939     2.314531    1.346833  
C    0.087717    2.151079    3.098384  
C    -2.318205   3.097911    1.222004  
C    -1.164377   3.793807    -1.624959 
H    -2.083162   3.210067    -1.736444 
H    -1.447161   4.843143    -1.491641 
H    -2.965762   2.772486    0.403874  
H    -2.544077   2.485767    2.097887  
H    -2.569251   4.136442    1.462402  
H    -0.870045   1.672394    3.317245  
H    0.874745    1.449213    3.38175   
H    0.176326    3.037829    3.734775  
H    3.319883    1.610622    0.699529  
C    1.670882    -0.067087   -1.915483 
O    2.586743    -0.062929   -0.978967 
H    3.370722    -0.659313   -1.204392 
O    4.383978    -1.873197   -1.280902 
O    0.578353    0.464193    -1.711271 
H    2.863871    -2.008971   0.539255  
H    -0.133254   -3.629475   3.126521  
H    2.142818    -0.196947   1.923457  
H    1.948716    -2.281362   3.226018  
C    2.002694    -0.688352   -3.239023 
H    2.683046    -0.018204   -3.775228 
H    2.520865    -1.640362   -3.100206 
H    1.094237    -0.82174    -3.823216 
H    3.360246    3.248752    1.367586  
H    2.333106    4.297912    -1.616777 
H    -0.603927   3.715587    -2.5594   
H    2.788584    1.913809    2.362902  
C    -4.018354   -0.657898   -1.323824 
C    -3.073464   -2.818145   -0.685729 
C    -5.344081   -1.023113   -0.651061 
H    -4.016194   -0.974127   -2.374756 
H    -3.8212     0.411435    -1.286019 
C    -4.352917   -3.246605   0.028716  
H    -3.149376   -3.079949   -1.74987  
H    -2.175212   -3.297296   -0.304382 
C    -5.555208   -2.53945    -0.6068   
H    -6.162083   -0.536508   -1.191006 
H    -5.339282   -0.617724   0.368082  
H    -4.46219    -4.333325   -0.038303 
H    -4.281158   -2.984335   1.092141  
H    -6.470918   -2.778072   -0.058934 
H    -5.688446   -2.916187   -1.629575 
N    -2.926575   -1.360074   -0.633735 
C    4.404678    -2.703658   -0.380777 
O    3.530174    -2.722823   0.615626  
O    -1.762294   0.544975    -0.403508 
C    5.418092    -3.799873   -0.286803 
H    6.086401    -3.756275   -1.144208 
H    5.985076    -3.685473   0.640922  
H    4.909175    -4.76582    -0.24406  
H    1.542351    3.000604    -2.518663 
