61                                     
                                       
C    -1.564318   3.4411      0.568825  
C    -0.340035   3.577146    -0.069913 
C    0.487862    2.468185    -0.258554 
C    0.151048    1.193321    0.216078  
C    -1.080228   1.092423    0.867781  
C    -1.934752   2.179325    1.020376  
C    1.582702    -2.367059   0.641719  
H    -0.041946   4.55385     -0.444053 
N    1.691029    2.706779    -0.987463 
Co   1.266161    -0.367938   -0.091014 
C    -0.250383   -1.879478   2.43302   
C    0.957757    -3.591616   0.047238  
C    3.76737     -2.268723   -0.787934 
C    4.184274    0.308684    0.981841  
H    -0.615697   -1.01509    2.992535  
H    -1.058988   -2.243191   1.795543  
H    -0.015448   -2.663624   3.160985  
H    -0.129351   -3.567726   0.154305  
H    1.19714     -3.690785   -1.014599 
H    1.325821    -4.48663    0.55991   
H    3.364123    -3.130764   -1.323097 
H    3.969642    -1.480734   -1.520881 
H    4.720051    -2.569184   -0.340434 
H    4.670447    0.222824    0.006482  
H    3.895559    1.353773    1.133671  
H    4.924253    0.055118    1.748047  
H    2.268325    1.488815    2.736035  
H    0.658659    0.859497    3.094525  
H    2.073092    0.211586    3.94494   
C    -1.071977   -1.225885   -1.575817 
O    -1.664909   -1.482615   -0.438127 
H    -2.658567   -1.442455   -0.514006 
O    -4.248052   -1.119063   -0.721298 
O    0.129817    -0.955247   -1.593628 
H    -4.326142   0.673147    0.857818  
H    -2.217386   4.299936    0.694976  
H    -1.416074   0.141647    1.267287  
C    -1.888352   -1.270299   -2.831348 
H    -2.456493   -2.202417   -2.879205 
H    -2.611737   -0.448998   -2.807343 
H    -1.238821   -1.167818   -3.698221 
C    1.890458    -0.470929   1.932221  
C    3.003821    -0.609891   1.068532  
H    1.909899    3.676434    -1.177693 
C    2.473978    1.794985    -1.565539 
O    2.310859    0.562919    -1.432936 
C    3.612864    2.280553    -2.416718 
H    3.624017    3.364214    -2.541949 
H    4.553711    1.96057     -1.960819 
H    3.539642    1.802167    -3.395929 
C    2.817032    -1.790158   0.267302  
C    1.70911     0.582184    2.980532  
O    -3.151048   1.927747    1.611268  
H    -3.622485   2.75763     1.781309  
C    -5.25326    -0.579354   -0.280427 
O    -5.236598   0.401723    0.60174   
C    -6.643342   -0.96604    -0.687585 
H    -7.186592   -1.324341   0.190929  
H    -7.173741   -0.088468   -1.064519 
H    -6.603748   -1.744374   -1.446803 
C    0.977495    -1.54038    1.642326  
