60                                     
                                       
C    3.582518    1.240068    -1.466806 
C    2.313572    1.756281    -1.6765   
C    1.206811    1.082249    -1.149164 
C    1.324787    -0.109498   -0.406387 
C    2.606868    -0.596536   -0.18117  
C    3.706691    0.073293    -0.713021 
H    1.366273    -2.536333   2.239896  
C    -1.374281   -2.444297   1.156064  
C    -0.13813    1.614538    -1.181997 
Co   -0.3748     -0.74969    0.248836  
C    -2.158545   -1.998125   0.072425  
C    -1.342337   -2.075399   -1.111248 
C    -0.087065   -2.631259   -0.75066  
C    -0.075023   -2.79952    0.667907  
C    -1.768347   -2.500385   2.59957   
C    -3.607528   -1.611991   0.113963  
C    -1.770347   -1.696089   -2.497653 
C    1.005162    -2.986462   -1.71292  
C    1.04122     -3.307699   1.532381  
H    0.722145    -4.18415    2.106579  
H    -0.929435   -2.209992   3.239481  
H    -2.613606   -1.839853   2.815469  
H    -2.064268   -3.51754    2.879888  
H    -3.890613   -1.198929   1.085775  
H    -3.855867   -0.86148    -0.641783 
H    -4.233869   -2.492398   -0.070604 
H    -2.550143   -0.928914   -2.470305 
H    -0.930014   -1.298222   -3.075367 
H    0.775204    -3.943887   -2.194058 
O    -0.006714   0.05178     1.918485  
H    0.459621    1.489847    1.797782  
H    -0.741624   -0.038524   2.540716  
H    1.905415    -3.606005   0.933771  
H    -2.170748   -2.559286   -3.041124 
H    4.466856    1.732518    -1.854007 
H    2.778543    -1.475782   0.432829  
O    2.812617    1.848575    1.758853  
H    1.97173     -3.081138   -1.214528 
H    1.115355    -2.230598   -2.495229 
C    1.970528    2.678446    1.498675  
O    0.659505    2.479423    1.573553  
C    2.30023     4.084741    1.042441  
H    1.921889    4.806834    1.77143   
H    3.378875    4.192951    0.93422   
H    1.802593    4.290802    0.090244  
H    -0.373678   2.578093    -1.641715 
H    2.185334    2.682023    -2.232973 
Cl   5.304147    -0.560318   -0.418107 
N    -1.04881    0.93984     -0.570669 
C    -2.372483   1.433563    -0.482502 
C    -3.103435   1.759472    -1.625415 
C    -2.950177   1.553645    0.782886  
C    -4.419733   2.198614    -1.498494 
H    -2.644668   1.642781    -2.603637 
C    -4.25975    2.001345    0.90013   
H    -2.344526   1.313312    1.65139   
C    -5.000488   2.317283    -0.239156 
H    -4.991766   2.442719    -2.388091 
H    -4.705269   2.106233    1.884406  
H    -6.026552   2.65719     -0.143737 
