70                                     
                                       
C    2.785838    1.563633    -1.545028 
C    1.478843    1.959459    -1.774252 
C    0.436259    1.195168    -1.236831 
C    0.665923    0.022263    -0.490753 
C    1.987388    -0.343918   -0.274029 
C    3.049638    0.418553    -0.77835  
H    0.958639    -2.320724   2.22551   
C    -1.802191   -2.468999   1.210474  
C    -0.944636   1.621043    -1.236314 
Co   -0.9499     -0.726456   0.239884  
C    -2.642345   -2.111344   0.136752  
C    -1.849346   -2.151555   -1.064191 
C    -0.548054   -2.606469   -0.722154 
C    -0.491093   -2.739522   0.697744  
C    -2.15584    -2.516905   2.664784  
C    -4.115646   -1.836869   0.203898  
C    -2.335933   -1.836262   -2.447414 
C    0.546414    -2.902405   -1.701513 
C    0.680773    -3.13546    1.547046  
H    0.445644    -4.018777   2.150641  
H    -1.3258     -2.146197   3.274169  
H    -3.042959   -1.915828   2.886455  
H    -2.366175   -3.545337   2.979307  
H    -4.410678   -1.434246   1.176495  
H    -4.436906   -1.118146   -0.555356 
H    -4.675462   -2.765471   0.042777  
H    -3.167703   -1.125681   -2.416781 
H    -1.539948   -1.392118   -3.053567 
H    0.382734    -3.888034   -2.152009 
O    -0.555096   0.122035    1.882395  
H    -0.144379   1.571863    1.736875  
H    -1.267778   0.022924    2.528788  
H    1.55325     -3.378824   0.9354    
H    -2.686335   -2.737392   -2.963309 
H    3.614931    2.139188    -1.945769 
H    2.224401    -1.19301    0.363449  
O    2.191364    2.113436    1.655171  
H    1.527011    -2.906582   -1.221294 
H    0.581376    -2.161319   -2.504446 
C    1.279161    2.865475    1.389945  
O    -0.009464   2.571281    1.501627  
C    1.488855    4.280847    0.891138  
H    1.086518    4.990649    1.619565  
H    2.552307    4.46499     0.740501  
H    0.944024    4.427716    -0.045601 
H    -1.269751   2.553396    -1.705963 
H    1.265195    2.861518    -2.343859 
C    4.447291    0.046326    -0.460655 
C    4.887859    -1.274781   -0.58903  
C    5.344974    1.01907     -0.007412 
C    6.202658    -1.614704   -0.287372 
H    4.196011    -2.032575   -0.948599 
C    6.658353    0.6781      0.297711  
H    4.985421    2.032637    0.145907  
C    7.092167    -0.638028   0.154055  
H    6.534852    -2.642221   -0.401345 
H    7.342297    1.439361    0.660511  
H    8.117919    -0.902874   0.391624  
N    -1.779613   0.893696    -0.576563 
C    -3.134132   1.28272     -0.453469 
C    -3.923647   1.53589     -1.575954 
C    -3.682443   1.370905    0.827683  
C    -5.266529   1.869862    -1.412343 
H    -3.487163   1.443884    -2.566905 
C    -5.019582   1.713445    0.981712  
H    -3.034348   1.188844    1.679726  
C    -5.817244   1.956157    -0.136951 
H    -5.882929   2.056606    -2.286105 
H    -5.44235    1.792632    1.978371  
H    -6.864121   2.213415    -0.013208 
