69                                     
                                       
C    1.47041     2.283434    -1.405565 
C    0.101956    2.474847    -1.519104 
C    -0.769625   1.511109    -0.998331 
C    -0.291875   0.35079     -0.362662 
C    1.080326    0.201558    -0.230291 
C    1.965631    1.144364    -0.762318 
H    0.613585    -2.159035   2.088627  
H    2.161426    3.021006    -1.805451 
C    -2.226138   1.674994    -0.939204 
Co   -1.661746   -0.808619   0.29558   
C    -2.05361    -2.807302   1.056218  
C    -2.984191   -2.531849   0.03463   
C    -2.242164   -2.251418   -1.166903 
C    -0.861549   -2.431205   -0.885153 
C    -0.733142   -2.705307   0.509679  
C    -2.333104   -3.098993   2.497567  
C    -4.47857    -2.621643   0.131873  
C    -2.836874   -1.904103   -2.499673 
C    0.245067    -2.360802   -1.893855 
C    0.519784    -2.921046   1.306522  
H    0.508479    -3.904695   1.788821  
H    -1.6884     -2.489332   3.138787  
H    -3.375603   -2.896363   2.759529  
H    -2.132095   -4.15198    2.724294  
H    -4.849555   -2.318367   1.116543  
H    -4.969797   -2.000812   -0.623028 
H    -4.80898    -3.653069   -0.035108 
H    -3.704833   -1.245156   -2.389064 
H    -2.109525   -1.383086   -3.128429 
O    -1.429444   -0.102005   2.032017  
H    -1.339405   1.405733    2.00262   
H    -2.190956   -0.308501   2.594016  
H    0.282183    -3.296845   -2.462676 
H    -4.605289   -0.065653   0.5092    
H    -6.005555   1.840104    -0.275921 
H    -4.886079   3.684584    -1.566262 
H    -2.435541   3.56144     -1.95361  
H    1.412413    -2.872009   0.678121  
C    -4.944199   1.815413    -0.491708 
C    -4.315355   2.836481    -1.201144 
H    -3.165007   -2.800293   -3.038266 
C    -4.169493   0.752403    -0.054802 
C    -2.949717   2.768903    -1.422396 
H    1.506612    -0.64025    0.306648  
N    -2.857116   0.671012    -0.288569 
O    0.784426    2.516968    1.888655  
H    1.218306    -2.210022   -1.421906 
H    0.098101    -1.538421   -2.599165 
C    -0.295948   3.034174    1.710255  
O    -1.465459   2.424551    1.848137  
C    -0.467016   4.483244    1.300052  
H    -0.954339   5.038326    2.106966  
H    0.506118    4.922566    1.082443  
H    -1.117528   4.54356     0.422296  
C    3.417292    0.94602     -0.652707 
H    4.048728    1.806922    -0.918246 
H    -0.275527   3.375319    -1.996623 
N    3.922758    -0.169663   -0.298301 
C    5.321597    -0.263921   -0.167528 
C    6.094848    0.738776    0.429962  
C    5.945035    -1.43303    -0.617198 
C    7.47279     0.582016    0.544064  
H    5.604661    1.619123    0.835376  
C    7.322824    -1.575747   -0.515595 
H    5.327376    -2.211547   -1.053567 
C    8.093166    -0.568472   0.064614  
H    8.062482    1.360373    1.018987  
H    7.798008    -2.481046   -0.881205 
H    9.168086    -0.687557   0.156406  
