69                                     
                                       
C    2.78412     1.664672    -1.473765 
C    1.47176     2.055242    -1.687509 
C    0.43885     1.273423    -1.157477 
C    0.683711    0.09847     -0.420807 
C    2.007256    -0.253198   -0.204103 
C    3.057017    0.513784    -0.721443 
H    1.003412    -2.281758   2.264115  
C    -1.716581   -2.516625   1.161747  
C    -0.956201   1.656188    -1.184291 
Co   -0.917986   -0.719901   0.250832  
C    -2.541192   -2.173195   0.071318  
C    -1.713114   -2.155306   -1.106629 
C    -0.402831   -2.561426   -0.736611 
C    -0.380896   -2.719651   0.681811  
C    -2.108037   -2.610195   2.604139  
C    -4.025849   -1.959782   0.100321  
C    -2.17557    -1.83186    -2.496363 
C    0.731079    -2.794591   -1.688776 
C    0.784125    -3.086725   1.553416  
H    0.573247    -3.998326   2.123215  
H    -1.311683   -2.217875   3.244204  
H    -3.026085   -2.05233    2.812657  
H    -2.282251   -3.653136   2.891863  
H    -4.365789   -1.59823    1.074507  
H    -4.352942   -1.231855   -0.647707 
H    -4.543341   -2.904192   -0.104612 
H    -3.03889    -1.159421   -2.47455  
H    -1.384155   -1.34044    -3.071076 
H    0.635859    -3.792      -2.133418 
O    -0.614785   0.120435    1.918187  
H    -0.277302   1.584096    1.797832  
H    -1.335613   -0.03136    2.544911  
H    1.684285    -3.26808    0.960832  
H    -2.471248   -2.736283   -3.040046 
H    3.600182    2.24364     -1.895645 
H    2.266026    -1.11605    0.401594  
O    2.035447    2.216963    1.747084  
H    1.704406    -2.730792   -1.197473 
H    0.730982    -2.060822   -2.499355 
C    1.098015    2.937585    1.484378  
O    -0.179508   2.592502    1.574302  
C    1.258899    4.367516    1.008466  
H    0.801614    5.050149    1.730255  
H    2.316976    4.600559    0.89249   
H    0.737417    4.500344    0.056173  
H    -1.301008   2.585796    -1.645253 
H    1.248304    2.957052    -2.253417 
C    4.452882    0.093252    -0.447    
C    5.470396    1.037509    -0.266485 
C    5.919363    -1.634727   -0.113512 
C    6.761529    0.594882    -0.013421 
H    5.234513    2.095889    -0.288112 
C    6.999715    -0.773443   0.058924  
H    6.061465    -2.711739   -0.051387 
H    7.566935    1.307239    0.137997  
H    7.990818    -1.167667   0.255123  
N    4.675962    -1.226617   -0.359855 
N    -1.782423   0.884906    -0.565563 
C    -3.15368    1.220682    -0.475069 
C    -3.742135   1.259155    0.790687  
C    -3.919081   1.468086    -1.615336 
C    -5.095216   1.547832    0.911409  
H    -3.112613   1.081888    1.657432  
C    -5.277941   1.747655    -1.485217 
H    -3.45064    1.413425    -2.594394 
C    -5.86847    1.785409    -0.225372 
H    -5.549858   1.588547    1.896307  
H    -5.875349   1.929766    -2.373041 
H    -6.927592   2.000372    -0.127737 
