67                                     
                                       
C    -3.603183   -0.731801   -1.225172 
C    -2.440791   -1.458362   -1.450592 
C    -1.219719   -0.890017   -1.044575 
C    -1.139898   0.39355     -0.452663 
C    -2.311676   1.091949    -0.24617  
C    -3.541515   0.518455    -0.592869 
H    -0.76507    3.086584    1.92814   
C    1.908147    2.41512     0.90328   
C    0.015488    -1.622612   -0.974045 
Co   0.62497     0.820484    0.179827  
C    2.600897    1.722776    -0.109829 
C    1.801705    1.792508    -1.305292 
C    0.662551    2.596516    -1.031782 
C    0.686547    2.928515    0.355405  
C    2.307555    2.569868    2.338101  
C    3.966478    1.110713    -0.006476 
C    2.152417    1.180388    -2.628858 
C    -0.359768   3.018727    -2.042088 
C    -0.325262   3.709452    1.140688  
H    0.136325    4.583447    1.613103  
H    1.435053    2.469037    2.991249  
H    3.050439    1.823394    2.634969  
H    2.743314    3.559629    2.515441  
H    4.19053     0.78405     1.012408  
H    4.079007    0.239811    -0.658431 
H    4.726331    1.845626    -0.2969   
H    2.775095    0.290355    -2.494372 
H    1.252415    0.877637    -3.173271 
H    0.008086    3.888731    -2.598082 
O    0.057789    0.345968    1.923404  
H    -0.763903   -0.907912   1.9859    
H    0.791693    0.30126     2.551893  
H    -1.13446    4.070303    0.501025  
H    2.706694    1.882839    -3.261602 
H    -4.559577   -1.158621   -1.507695 
H    -2.336261   2.044181    0.275765  
N    1.016877    -1.042506   -0.396139 
O    -3.182228   -0.819557   2.047756  
H    -1.306944   3.288961    -1.571719 
H    -0.569844   2.220312    -2.758675 
C    -2.505469   -1.809075   1.856097  
O    -1.185632   -1.855235   1.898133  
C    -3.13117    -3.159379   1.55637   
H    -3.650372   -3.517269   2.450048  
H    -3.877569   -3.031522   0.767614  
H    -2.38389    -3.895435   1.257018  
H    0.109881    -2.65632    -1.315605 
C    2.238523    -1.729566   -0.21794  
C    2.800114    -1.764273   1.060648  
C    2.901161    -2.331794   -1.289297 
C    4.017775    -2.400469   1.263647  
H    2.251647    -1.304274   1.87722   
C    4.125958    -2.961624   -1.078674 
H    2.464776    -2.278574   -2.283168 
C    4.688062    -2.995114   0.194299  
H    4.446464    -2.434229   2.260443  
H    4.643769    -3.42013    -1.915378 
H    5.644026    -3.48294    0.35436   
C    -2.510737   -2.835015   -2.065194 
H    -1.860879   -2.920348   -2.942274 
H    -2.203689   -3.604798   -1.348058 
H    -3.531072   -3.06643    -2.380707 
O    -4.639939   1.233295    -0.266907 
C    -5.850984   0.519019    -0.107748 
H    -5.690593   -0.354041   0.534329  
H    -6.54643    1.208512    0.371117  
H    -6.266499   0.206146    -1.073163 
