68                                     
                                       
C    3.353305    -1.32375    1.275983  
C    2.126423    -1.963477   1.397805  
C    0.983885    -1.252491   1.024078  
C    0.986524    0.071361    0.559901  
C    2.243024    0.664634    0.428612  
C    3.415895    -0.011873   0.794989  
H    0.588018    3.050109    -1.753509 
C    -2.064334   2.291329    -0.648885 
C    -0.297393   -1.909895   0.874393  
Co   -0.747612   0.664236    -0.074558 
C    -2.696402   1.563533    0.377081  
C    -1.818552   1.56719     1.51621   
C    -0.699205   2.393172    1.2081    
C    -0.812576   2.791231    -0.152876 
C    -2.551575   2.508735    -2.04816  
C    -4.079861   0.986234    0.342199  
C    -2.082166   0.8953      2.830872  
C    0.375762    2.772473    2.17997   
C    0.116721    3.644026    -0.963321 
H    -0.434101   4.47247     -1.422677 
H    -1.718086   2.444448    -2.75483  
H    -3.306354   1.769814    -2.334312 
H    -3.001846   3.502087    -2.15608  
H    -4.394367   0.736506    -0.674035 
H    -4.16957    0.079016    0.945518  
H    -4.788936   1.721544    0.740407  
H    -2.712944   0.010088    2.698134  
H    -1.147357   0.570214    3.2983    
H    0.002416    3.551969    2.854096  
O    -0.19198    0.313479    -1.845883 
H    0.847126    -0.731806   -2.043806 
H    -0.912855   0.286776    -2.488633 
H    0.909702    4.063034    -0.341297 
H    -2.592689   1.565466    3.532007  
N    -1.249832   -1.233722   0.33123   
O    3.107824    -0.01542    -2.415445 
H    1.259513    3.145       1.662099  
H    0.683584    1.917499    2.788424  
C    2.747409    -1.162572   -2.230184 
O    1.495871    -1.546273   -2.07616  
C    3.718915    -2.321468   -2.134034 
H    3.377076    -3.155398   -2.75155  
H    4.710881    -1.99735    -2.44951  
H    3.757995    -2.671271   -1.097004 
H    -0.439858   -2.96286    1.131954  
C    -2.50227    -1.845084   0.085149  
C    -3.066096   -1.711802   -1.184826 
C    -3.185306   -2.536048   1.087531  
C    -4.307178   -2.275596   -1.451427 
H    -2.50479    -1.179457   -1.946583 
C    -4.434074   -3.089828   0.814823  
H    -2.747956   -2.608717   2.079658  
C    -4.997877   -2.960043   -0.45125  
H    -4.738879   -2.179951   -2.44279  
H    -4.969196   -3.617011   1.598374  
H    -5.972251   -3.389826   -0.659239 
H    2.090354    -3.000051   1.717603  
O    2.272276    1.919492    -0.087976 
C    3.509033    2.431614    -0.541645 
H    3.979488    1.730609    -1.236423 
H    3.270698    3.36033     -1.063254 
H    4.179626    2.65701     0.298701  
H    4.375403    0.468285    0.65793   
O    4.452114    -2.06191    1.604423  
C    5.717552    -1.497243   1.345815  
H    6.449513    -2.257546   1.618849  
H    5.830782    -1.244275   0.284092  
H    5.887888    -0.597988   1.950737  
