74                                     
                                       
C    2.992849    -0.120432   -0.364231 
C    2.039714    0.891798    -0.650201 
C    0.672873    0.566436    -0.497941 
C    0.227935    -0.714502   -0.10613  
C    1.184713    -1.677378   0.171464  
C    2.555854    -1.407496   0.055558  
H    -1.129671   -3.502179   1.754352  
C    -3.362698   -2.170473   0.36516   
C    -0.393097   1.540479    -0.545349 
Co   -1.682928   -0.817789   0.119373  
C    -3.687335   -1.249686   -0.651377 
C    -2.687021   -1.370969   -1.679179 
C    -1.799949   -2.418593   -1.314818 
C    -2.173268   -2.874287   -0.014947 
C    -4.077223   -2.378382   1.664672  
C    -4.903211   -0.373205   -0.711783 
C    -2.634641   -0.574796   -2.949154 
C    -0.689173   -2.943082   -2.172703 
C    -1.516485   -3.931538   0.822953  
H    -2.227798   -4.723494   1.081308  
H    -3.361918   -2.565986   2.471457  
H    -4.685216   -1.510106   1.936556  
H    -4.74605    -3.244456   1.605449  
H    -5.26416    -0.109182   0.285762  
H    -4.711705   0.562165    -1.245169 
H    -5.713668   -0.895488   -1.233363 
H    -3.100573   0.406346    -2.814894 
H    -1.601009   -0.411963   -3.270432 
H    -1.09588    -3.627374   -2.926065 
O    -1.446755   -0.606836   1.983019  
H    -0.499727   0.535585    2.346402  
H    -2.288665   -0.547926   2.455364  
H    -0.683756   -4.399858   0.292175  
H    -3.161674   -1.085383   -3.763101 
H    0.887777    -2.660002   0.53277   
O    1.770835    -0.05597    2.732721  
H    0.054737    -3.485757   -1.586381 
H    -0.165929   -2.135996   -2.69242  
C    1.357394    1.068291    2.551967  
O    0.075967    1.389791    2.414968  
C    2.267059    2.278009    2.481393  
H    2.300167    2.759188    3.464177  
H    3.273472    1.957364    2.20759   
H    1.891056    3.006966    1.760396  
H    -0.224686   2.603018    -0.728776 
C    3.545157    -2.404356   0.365225  
C    4.869896    -2.143023   0.257736  
C    4.388655    0.157381    -0.470118 
C    5.342668    -0.850761   -0.1643   
H    3.19878     -3.378807   0.69822   
H    5.60607     -2.905444   0.498594  
C    2.517579    2.185321    -1.062687 
C    4.83163     1.444779    -0.872972 
C    6.205212    1.699594    -0.970219 
C    6.705223    -0.555785   -0.273806 
H    7.432547    -1.32787    -0.037085 
C    3.844564    2.446386    -1.167537 
C    7.13186     0.707238    -0.674108 
H    6.539028    2.686677    -1.279188 
H    1.803806    2.967849    -1.300602 
H    8.193638    0.918601    -0.752221 
H    4.186726    3.429377    -1.480821 
N    -1.582348   1.1256      -0.263835 
C    -2.662238   2.036946    -0.206007 
C    -2.973558   2.863615    -1.286708 
C    -3.443091   2.067937    0.951471  
C    -4.073252   3.715576    -1.20873  
H    -2.368702   2.813083    -2.188179 
C    -4.532202   2.926754    1.02363   
H    -3.158778   1.42922     1.78215   
C    -4.85536    3.746964    -0.057756 
H    -4.320635   4.350538    -2.053675 
H    -5.131661   2.958695    1.928079  
H    -5.713032   4.409277    -0.001123 
