58                                     
                                       
C    3.324094    -0.377921   -1.297705 
C    2.533325    0.759603    -1.4484   
C    1.227895    0.728434    -0.986129 
C    0.643048    -0.399454   -0.397606 
C    1.453225    -1.510481   -0.245619 
C    2.787324    -1.505016   -0.673926 
H    -0.740471   -2.665143   2.067957  
C    -2.937215   -1.035563   1.018844  
N    0.398109    1.886008    -0.970036 
Co   -1.152721   -0.10159    0.23608   
C    -3.302267   -0.150476   -0.015442 
C    -2.633609   -0.580838   -1.216652 
C    -1.902975   -1.759306   -0.915868 
C    -2.029164   -2.006911   0.4857    
C    -3.330151   -0.969815   2.461326  
C    -4.252615   1.006253    0.083481  
C    -2.737722   0.083555    -2.55732  
C    -1.140259   -2.584739   -1.906741 
C    -1.394751   -3.094597   1.300765  
H    -2.156703   -3.701441   1.802012  
H    -2.442973   -1.045946   3.098103  
H    -3.850421   -0.037231   2.697449  
H    -4.00082    -1.798331   2.714654  
H    -4.160513   1.534195    1.038319  
H    -4.081545   1.726947    -0.721178 
H    -5.289892   0.663959    -0.00283  
H    -2.696128   1.173925    -2.464112 
H    -1.914155   -0.220241   -3.208868 
H    -1.832561   -3.223881   -2.466166 
O    -0.473219   0.197514    1.973321  
H    0.774061    1.062854    1.94351   
H    -1.101345   0.72699     2.48752   
H    -0.796804   -3.765147   0.678904  
H    -3.676494   -0.175945   -3.059234 
H    4.351437    -0.36034    -1.640144 
H    1.101581    -2.403633   0.263747  
N    -0.797358   1.740435    -0.380704 
O    2.987754    0.127815    1.965172  
H    -0.406116   -3.226013   -1.415961 
H    -0.596422   -1.960412   -2.620177 
C    2.706261    1.28431     1.737651  
O    1.487489    1.800797    1.799462  
C    3.740449    2.329141    1.366995  
H    3.910267    2.990258    2.222425  
H    4.675384    1.838877    1.095394  
H    3.375448    2.945721    0.541388  
C    -1.362744   2.945498    -0.356758 
H    2.957527    1.653022    -1.898401 
C    -0.51159    3.88896     -0.944387 
H    -2.341079   3.076182    0.082376  
C    0.610474    3.167892    -1.315008 
H    1.53038     3.474089    -1.788561 
H    -0.681992   4.945836    -1.073098 
O    3.4884      -2.643837   -0.43767  
C    4.893579    -2.561285   -0.524099 
H    5.271074    -1.736328   0.091657  
H    5.2783      -3.508606   -0.145685 
H    5.228107    -2.428152   -1.560871 
