67                                     
                                       
C    3.003291    1.581439    -1.457926 
C    1.699518    1.999556    -1.668292 
C    0.647186    1.236301    -1.15069  
C    0.863506    0.051746    -0.417592 
C    2.174928    -0.329387   -0.184866 
C    3.227264    0.427265    -0.701485 
H    1.120553    -2.338008   2.265742  
C    -1.603715   -2.50321    1.161337  
C    -0.737811   1.649777    -1.181333 
Co   -0.76099    -0.729724   0.248936  
C    -2.419242   -2.139166   0.070624  
C    -1.591173   -2.144309   -1.107713 
C    -0.291794   -2.582753   -0.737136 
C    -0.273515   -2.73997    0.681756  
C    -1.998236   -2.5863     2.603487  
C    -3.897952   -1.888032   0.099738  
C    -2.045844   -1.811873   -2.497819 
C    0.836741    -2.844078   -1.688215 
C    0.882022    -3.135991   1.553351  
H    0.648746    -4.0428     2.121887  
H    -1.190727   -2.21938    3.244562  
H    -2.89922    -2.001412   2.812305  
H    -2.203973   -3.623948   2.88937   
H    -4.228122   -1.515871   1.073239  
H    -4.206857   -1.153777   -0.649766 
H    -4.438824   -2.819727   -0.102781 
H    -2.89075    -1.116528   -2.477137 
H    -1.242021   -1.343818   -3.074737 
H    0.716253    -3.837985   -2.134277 
O    -0.440607   0.104893    1.915568  
H    -0.080448   1.562136    1.801392  
H    -1.162697   -0.034642   2.543688  
H    1.777963    -3.339482   0.961597  
H    -2.366195   -2.709708   -3.038328 
H    3.839476    2.130719    -1.876909 
H    2.422403    -1.189658   0.427463  
O    2.241393    2.160935    1.714987  
H    1.810272    -2.80796    -1.194615 
H    0.857494    -2.10975    -2.498045 
C    1.309977    2.900081    1.482451  
O    0.029805    2.571813    1.587857  
C    1.483937    4.33465     1.025915  
H    1.032713    5.012206    1.756023  
H    2.543837    4.559903    0.911735  
H    0.962741    4.484349    0.075737  
H    -1.059312   2.588482    -1.640607 
H    1.500402    2.908351    -2.231565 
N    4.552303    0.011891    -0.440227 
C    5.648337    0.799105    -0.268887 
C    6.136587    -1.334408   -0.051967 
C    6.705354    -0.04119    -0.016857 
H    5.569115    1.875302    -0.294233 
H    6.623434    -2.289016   0.092691  
H    7.729459    0.234593    0.180772  
N    4.838175    -1.297304   -0.303521 
N    -1.584388   0.896043    -0.568111 
C    -2.947308   1.265605    -0.480745 
C    -3.704415   1.527034    -1.623358 
C    -3.536418   1.32414     0.783932  
C    -5.056308   1.840123    -1.496806 
H    -3.235644   1.457339    -2.601308 
C    -4.882364   1.646032    0.900995  
H    -2.912778   1.136231    1.652728  
C    -5.647777   1.89731     -0.238142 
H    -5.647598   2.033238    -2.386371 
H    -5.337468   1.702331    1.884888  
H    -6.701507   2.138324    -0.143208 
