58                                     
                                       
C    -2.161812   3.147662    1.586139  
C    -0.989801   3.371679    0.877909  
C    -0.226856   2.265508    0.49927   
C    -0.569029   0.931837    0.798031  
C    -1.762448   0.747885    1.496814  
C    -2.547579   1.837653    1.879229  
H    3.442028    0.762336    1.347218  
H    -0.676749   4.37456     0.601191  
C    0.95038     2.341196    -0.34308  
Co   0.660568    -0.360282   -0.003864 
C    0.876493    -2.509457   -0.008246 
C    2.138423    -1.887717   -0.237456 
C    2.448333    -1.10756    0.920886  
C    1.359499    -1.196621   1.822631  
C    0.378226    -2.077605   1.245942  
C    0.186713    -3.421574   -0.973888 
C    2.971959    -2.081334   -1.469877 
C    3.68387     -0.287723   1.152202  
C    1.276841    -0.539391   3.16739   
C    -0.875781   -2.563983   1.905789  
H    -0.75733    -3.607419   2.219317  
H    -0.853595   -3.579902   -0.687368 
H    0.193255    -2.994758   -1.982205 
H    0.700412    -4.389001   -1.012862 
H    2.362335    -1.977969   -2.373693 
H    3.781949    -1.349188   -1.530257 
H    3.427103    -3.078086   -1.488723 
H    4.354517    -0.326191   0.290074  
O    -2.08668    -1.32804    -0.734615 
C    -1.54447    -0.70021    -1.654332 
H    -3.55036    -0.325237   -0.238117 
O    -4.443685   0.066198    -0.213644 
H    4.238366    -0.669317   2.015966  
C    2.571073    1.566917    -1.664815 
O    -0.316584   -0.309942   -1.650238 
C    2.559984    3.111468    -1.676997 
H    2.464803    3.549864    -2.670106 
H    -2.787779   3.981385    1.886927  
H    -2.123548   -0.254006   1.708955  
N    1.592614    1.260583    -0.629875 
C    -2.360829   -0.32707    -2.875586 
H    -2.783741   -1.233762   -3.316613 
H    -3.196359   0.293158    -2.533333 
H    -1.769423   0.211281    -3.615647 
H    -3.490134   1.657639    2.387631  
H    1.913185    0.349259    3.209055  
H    0.255144    -0.221807   3.391507  
H    1.604457    -1.226205   3.956246  
H    2.24305     1.128749    -2.614136 
H    -1.102142   -1.976435   2.799213  
H    -1.723394   -2.496807   1.219312  
O    1.380278    3.464784    -0.920394 
H    3.555986    1.162918    -1.415595 
H    3.424142    3.541927    -1.164409 
C    -5.312295   -0.941117   -0.670553 
H    -6.322154   -0.522702   -0.700863 
H    -5.054613   -1.289509   -1.68158  
H    -5.325048   -1.817917   -0.006932 
