57                                     
                                       
C    -2.014898   3.31981     1.381326  
C    -0.843232   3.471751    0.646966  
C    -0.138411   2.32445     0.302254  
C    -0.513      1.02741     0.665748  
C    -1.702172   0.919954    1.386944  
C    -2.449841   2.045827    1.737441  
H    4.25358     -0.116745   0.128456  
H    -0.508652   4.458367    0.339678  
N    1.027435    2.385742    -0.51959  
Co   0.66191     -0.345848   -0.046656 
C    0.386609    -1.938629   1.354304  
C    0.871421    -2.483282   0.138192  
C    2.134317    -1.893908   -0.155035 
C    2.45735     -1.01029    0.924843  
C    1.378569    -1.01811    1.843156  
C    -0.85745    -2.363377   2.072787  
C    0.168893    -3.472153   -0.738308 
C    2.962364    -2.215518   -1.365115 
C    3.702263    -0.185758   1.069132  
C    1.304194    -0.25168    3.129154  
H    -1.711359   -2.376023   1.391616  
H    -0.72446    -3.366708   2.493245  
H    -0.879071   -3.571943   -0.452833 
H    0.201769    -3.15268    -1.78493  
H    0.65574     -4.45173    -0.667649 
H    2.398047    -2.051274   -2.289783 
H    3.868763    -1.605146   -1.406749 
H    3.278822    -3.264388   -1.354266 
O    -2.120036   -1.357505   -0.609586 
C    -1.593792   -0.822994   -1.595959 
H    -3.568771   -0.314542   -0.183726 
O    -4.45534    0.092362    -0.161328 
H    3.400297    3.360439    -2.510257 
H    1.352838    4.41999     -1.010067 
O    -0.363974   -0.447474   -1.655988 
C    2.587033    1.460516    -1.66535  
C    2.689171    2.840644    -1.888303 
H    3.473807    0.834849    1.39067   
H    1.618004    -0.879349   3.970908  
N    1.582237    1.206772    -0.834196 
H    -2.595448   4.195262    1.653244  
H    -2.084005   -0.062314   1.648221  
H    -3.389192   1.919825    2.265938  
C    -2.433985   -0.556355   -2.828516 
H    -2.875722   -1.495267   -3.173105 
H    -3.255347   0.103168    -2.527946 
H    -1.853294   -0.096379   -3.627388 
C    1.667536    3.39611     -1.138447 
H    4.368974    -0.632057   1.814867  
H    1.955083    0.626551    3.104218  
H    0.287152    0.099262    3.322548  
H    3.174818    0.646777    -2.065596 
H    -1.082775   -1.687267   2.901423  
C    -5.352516   -0.932763   -0.510365 
H    -6.357212   -0.501961   -0.538938 
H    -5.135076   -1.361148   -1.499968 
H    -5.354316   -1.756253   0.218496  
