60                                     
                                       
C    -2.705676   2.662133    -0.897119 
C    -2.658531   1.328062    -1.292995 
C    -1.526814   0.593109    -0.970555 
C    -0.432981   1.122748    -0.279687 
C    -0.536945   2.449385    0.121285  
C    -1.655109   3.238517    -0.183563 
H    3.042509    -0.401345   -3.494724 
H    4.03258     -2.807422   -1.086343 
N    -1.41353    -0.794297   -1.257104 
Co   0.950669    -0.165808   0.078662  
C    2.420219    -0.122722   -1.449278 
C    2.459244    1.124324    -0.770152 
C    2.723568    0.861853    0.605373  
C    2.984847    -0.545303   0.741453  
C    2.796655    -1.151663   -0.513022 
C    2.122077    -0.327095   -2.904627 
C    2.265654    2.460905    -1.418575 
C    2.808575    1.835872    1.741821  
C    3.30927     -1.209396   2.042356  
C    2.982969    -2.601255   -0.848469 
H    1.398575    2.46959     -2.083856 
H    2.119128    3.251121    -0.67975  
H    3.154823    2.71226     -2.007671 
H    2.520659    2.843611    1.432157  
H    2.144257    1.52731     2.556186  
H    3.829102    1.889702    2.137332  
H    2.485936    -1.064002   2.749596  
H    3.471355    -2.282413   1.915046  
O    -1.804751   -0.994742   1.531419  
C    -0.844268   -0.747575   2.257506  
H    -3.402743   -0.525057   0.700443  
O    -4.229537   -0.74328    0.230575  
H    4.21863     -0.779165   2.475623  
H    1.533537    0.504398    -3.302112 
O    0.352714    -0.451923   1.865375  
H    2.698251    -3.252713   -0.016808 
C    -0.442802   -2.6926     -1.033205 
H    -3.508147   0.869789    -1.787321 
H    2.390391    -2.884396   -1.722677 
N    -0.290358   -1.389755   -0.824153 
H    -3.586063   3.254564    -1.129857 
H    0.267195    2.89836     0.703905  
C    -0.992104   -0.767793   3.770809  
H    -0.871107   0.248972    4.155988  
H    -1.974815   -1.148581   4.048268  
H    -0.207224   -1.383605   4.217118  
H    -2.108263   -3.895601   -1.905698 
H    0.336564    -3.383163   -0.746812 
C    -1.691366   -2.94368    -1.617923 
C    -2.287683   -1.700445   -1.729199 
H    -3.269792   -1.403751   -2.060218 
H    1.543754    -1.242579   -3.064989 
C    -4.599343   -2.019654   0.698251  
H    -4.798533   -2.021721   1.778277  
H    -5.518146   -2.309352   0.179593  
H    -3.825516   -2.772888   0.494044  
C    -1.708028   4.68304     0.246049  
H    -2.728169   5.073538    0.202936  
H    -1.341167   4.803803    1.269858  
H    -1.08438    5.310879    -0.400771 
