60                                     
                                       
C    2.453618    2.957242    -0.824745 
C    2.558471    2.001499    0.190928  
C    1.496921    1.094088    0.29661   
C    0.33951     1.157905    -0.490587 
C    0.305515    2.10741     -1.505304 
C    1.361686    3.000689    -1.68169  
H    -2.708659   1.499528    3.401472  
H    3.262595    3.673105    -0.941145 
N    1.490373    -0.014071   1.202289  
Co   -1.019206   -0.115201   -0.025377 
C    -2.320108   0.713239    1.431842  
C    -2.49189    1.450765    0.230069  
C    -2.887278   0.536248    -0.787532 
C    -3.093968   -0.746296   -0.16965  
C    -2.746168   -0.641707   1.188374  
C    -1.86048    1.263255    2.74894   
C    -2.293022   2.929582    0.096994  
C    -3.141492   0.808056    -2.239848 
C    -3.524962   -1.968152   -0.918089 
C    -2.825283   -1.719093   2.227943  
H    -1.359244   3.258771    0.56021   
H    -2.266226   3.241886    -0.948603 
H    -3.122998   3.453802    0.584004  
H    -2.881138   1.834557    -2.509855 
H    -2.547479   0.130662    -2.862961 
H    -4.198277   0.658637    -2.488177 
H    -2.795722   -2.201729   -1.700858 
H    -3.612473   -2.833814   -0.257233 
O    1.598456    -1.568268   -1.176746 
C    0.558911    -1.717482   -1.816441 
H    3.21373     -0.737346   -0.915264 
O    4.114685    -0.701547   -0.541824 
H    -1.220409   0.547065    3.274062  
H    -1.279517   2.178846    2.607723  
O    -0.606221   -1.262987   -1.489626 
H    -2.659483   -2.712187   1.799939  
C    0.584655    -1.823602   1.935877  
H    -2.087408   -1.561146   3.019607  
H    -3.81388    -1.722907   2.700731  
N    0.352816    -0.735649   1.213033  
H    -0.553804   2.155706    -2.170606 
C    0.559488    -2.49242    -3.124445 
H    0.367282    -1.800104   -3.949508 
H    1.523607    -2.977992   -3.274369 
H    -0.243221   -3.233917   -3.123761 
H    2.39368     -2.554959   3.019033  
H    -0.193504   -2.561091   2.06741   
C    1.90155     -1.814905   2.40836   
C    2.452445    -0.653924   1.899966  
H    3.456219    -0.273686   1.954478  
H    -4.499651   -1.803811   -1.390166 
C    4.514046    -2.04526    -0.401505 
H    4.561732    -2.563366   -1.368458 
H    5.514759    -2.049525   0.040613  
H    3.834585    -2.609054   0.252674  
H    1.327724    3.73959     -2.477047 
C    3.776563    2.004094    1.078185  
H    3.510849    1.912304    2.136806  
H    4.44508     1.181685    0.803444  
H    4.319765    2.944006    0.953791  
