66                                     
                                       
C    2.392857    2.659039    -0.213154 
C    1.077695    3.060106    -0.027594 
C    0.03982     2.122473    0.027179  
C    0.297797    0.750894    -0.166883 
C    1.610974    0.360541    -0.350897 
C    2.666712    1.28671     -0.330987 
H    -4.59114    -2.876816   -0.233532 
H    0.875119    4.119853    0.10801   
C    -1.335453   2.431542    0.406759  
Co   -1.264964   -0.361447   -0.044012 
C    -1.327557   -0.759621   -2.134571 
C    -0.743943   -1.888105   -1.458778 
C    -1.723761   -2.413604   -0.581041 
C    -2.904458   -1.623983   -0.68521  
C    -2.660315   -0.616196   -1.669326 
C    -0.668548   0.071052    -3.194414 
C    0.599394    -2.493526   -1.73179  
C    -1.563035   -3.584745   0.337286  
C    -4.176506   -1.90605    0.060504  
C    -3.623391   0.435761    -2.135608 
H    1.221314    -1.82315    -2.329938 
H    1.125002    -2.706376   -0.796804 
H    0.485193    -3.429228   -2.291018 
H    -0.514695   -3.872824   0.426584  
H    -1.929645   -3.344651   1.340753  
H    -2.138668   -4.439693   -0.036394 
H    -4.010601   -1.937844   1.143645  
H    -4.943032   -1.153681   -0.145513 
O    0.886595    -1.983646   1.419151  
C    0.095357    -1.403805   2.176361  
H    2.648645    -1.855697   1.128616  
O    3.530395    -1.943017   0.705662  
H    -0.783985   -0.394893   -4.179649 
H    -3.927098   0.518165    1.07199   
O    -0.956459   -0.767627   1.798485  
H    -3.569281   4.791086    1.386901  
H    -4.471384   0.539981    -1.453779 
C    -3.374662   1.447386    0.971638  
C    -3.941518   2.667384    1.301328  
N    -2.122623   1.335119    0.519804  
H    -4.960577   2.714991    1.6656    
H    0.398674    0.194256    -2.993235 
H    3.202367    3.374348    -0.231399 
H    1.861576    -0.688048   -0.457264 
C    0.337646    -1.387991   3.673353  
H    1.014382    -2.194452   3.956773  
H    0.796015    -0.430021   3.938693  
H    -0.605882   -1.467164   4.216018  
C    -3.160479   3.813823    1.149114  
H    -3.142224   1.415854    -2.213854 
H    -4.020004   0.178668    -3.123762 
H    -1.107906   1.071503    -3.242257 
C    -1.853707   3.697953    0.707962  
H    -1.223464   4.573364    0.603659  
N    3.952334    0.738725    -0.380823 
H    3.977805    -0.267965   -0.211104 
C    5.152557    1.399764    -0.425693 
O    5.269179    2.607024    -0.534185 
C    3.802149    -3.321983   0.584179  
H    4.750666    -3.429034   0.052195  
H    3.899379    -3.804519   1.564729  
H    3.023915    -3.846547   0.014652  
C    6.351913    0.470821    -0.368474 
H    6.145351    -0.432181   0.212215  
H    6.627683    0.175354    -1.385675 
H    7.189648    1.013812    0.069248  
