62                                     
                                       
C    -0.687472   3.704179    1.325024  
C    0.529789    3.38975     0.722517  
C    0.734362    2.052167    0.30819   
C    -0.24063    1.056057    0.550463  
C    -1.449576   1.427168    1.132853  
C    -1.680485   2.747625    1.504632  
H    3.638096    -1.95312    0.419784  
C    1.525608    4.512872    0.552821  
C    1.87596     1.559213    -0.490419 
Co   0.274121    -0.719      0.016681  
C    -0.655275   -1.87847    1.579163  
C    -0.412974   -2.734015   0.477491  
C    0.987417    -2.760593   0.216218  
C    1.621771    -1.932239   1.191535  
C    0.615602    -1.368035   2.01899   
C    -1.978822   -1.673179   2.250025  
C    -1.43435    -3.487624   -0.31594  
C    1.629591    -3.612484   -0.839704 
C    3.093031    -1.668559   1.323878  
C    0.843524    -0.464236   3.193379  
H    -2.761209   -1.484021   1.510713  
H    -2.24929    -2.564873   2.827218  
H    -2.445384   -3.170919   -0.058712 
H    -1.295723   -3.31658    -1.388734 
H    -1.336279   -4.563809   -0.130644 
H    1.18909     -3.431328   -1.827189 
H    2.706658    -3.434772   -0.907595 
H    1.49252     -4.676232   -0.614557 
O    -2.643869   -0.698235   -0.702845 
C    -1.908355   -0.504467   -1.681758 
H    -3.622617   0.829212    -0.512773 
O    -4.279151   1.547766    -0.583836 
H    2.418806    -1.380521   -1.879154 
H    4.39148     -0.187225   -2.855484 
O    -0.626266   -0.612933   -1.666035 
H    3.297349    -0.609254   1.510782  
C    2.624596    -0.341418   -1.643488 
C    3.713269    0.324284    -2.183283 
C    3.889796    1.656246    -1.826153 
N    1.762705    0.246689    -0.813937 
H    0.919287    -1.044407   4.120133  
C    2.973452    2.277167    -0.989374 
H    -0.864399   4.729637    1.637982  
H    -2.23627    0.693684    1.2669    
C    -2.528996   -0.088789   -3.000406 
H    -3.274127   -0.831562   -3.297939 
H    -3.056027   0.856473    -2.83117  
H    -1.78158    0.031775    -3.783928 
H    4.733252    2.221758    -2.210198 
H    3.511169    -2.241021   2.158972  
H    1.768875    0.107867    3.078799  
H    0.027747    0.255138    3.302893  
H    -2.640257   3.031104    1.926243  
H    -1.945268   -0.828882   2.942789  
H    2.501358    4.272239    0.987725  
H    1.677739    4.772775    -0.500828 
H    1.156989    5.4098      1.055877  
H    3.110952    3.316515    -0.741211 
C    -5.491921   0.922547    -0.923364 
H    -6.246294   1.703622    -1.052554 
H    -5.422373   0.355413    -1.863597 
H    -5.843652   0.23391     -0.141396 
