62                                     
                                       
C    -0.46304    3.764953    1.390573  
C    0.722877    3.316315    0.822455  
C    0.855944    1.972171    0.441014  
C    -0.209302   1.064218    0.639895  
C    -1.38909    1.544802    1.20299   
C    -1.524356   2.883239    1.570068  
H    0.951207    -4.722125   -0.901187 
H    1.510527    4.036367    0.652013  
C    1.999567    1.40811     -0.306945 
Co   0.140087    -0.711683   -0.005235 
C    0.407154    -1.519864   1.946875  
C    -0.907831   -1.866844   1.476572  
C    -0.748854   -2.670706   0.322169  
C    0.643246    -2.824377   0.057797  
C    1.353941    -2.131916   1.084584  
C    0.723333    -0.722311   3.176409  
C    -2.20627    -1.563071   2.158736  
C    -1.837202   -3.263501   -0.517435 
C    1.199306    -3.665658   -1.05398  
C    2.84356     -2.030972   1.236683  
H    -2.089259   -0.764079   2.894889  
H    -2.961236   -1.255218   1.431027  
H    -2.569664   -2.451188   2.688447  
H    -2.81305    -2.867941   -0.234963 
H    -1.679777   -3.033094   -1.576428 
H    -1.845294   -4.35433    -0.407061 
H    0.785195    -3.372962   -2.025922 
H    2.289192    -3.596016   -1.112128 
O    -2.763038   -0.35485    -0.73122  
C    -1.999157   -0.163277   -1.68881  
H    -3.590916   1.235039    -0.425279 
O    -4.164797   2.024821    -0.422629 
H    0.745105    -1.367014   4.062522  
H    2.228028    -1.448476   -1.942261 
O    -0.735097   -0.402129   -1.676071 
H    5.058117    1.768281    -1.715731 
H    3.365073    -2.351899   0.331219  
C    2.557551    -0.474332   -1.596295 
C    3.75993     0.080549    -1.997047 
N    1.735282    0.158386    -0.760534 
H    4.412761    -0.447809   -2.681372 
H    -0.018825   0.06329     3.339902  
C    3.240121    2.009644    -0.616334 
H    -0.564202   4.810178    1.665471  
H    -2.241074   0.88423     1.318506  
C    -2.55872    0.413451    -2.973857 
H    -3.375396   -0.221064   -3.328532 
H    -2.984101   1.394239    -2.73479  
H    -1.794626   0.512763    -3.744147 
C    4.10154     1.31723     -1.464649 
H    3.159189    -1.004299   1.450961  
H    3.18727     -2.663836   2.062046  
H    1.699439    -0.235551   3.091282  
H    -2.471859   3.235768    1.966125  
C    3.691906    3.337751    -0.067371 
H    3.185003    4.174245    -0.559068 
H    3.503454    3.415136    1.006512  
H    4.765023    3.458987    -0.233977 
C    -5.436422   1.573924    -0.818675 
H    -5.422595   1.100476    -1.811719 
H    -5.86711    0.85278     -0.108877 
H    -6.099852   2.441967    -0.865588 
