58                                     
                                       
C    3.363046    -0.623896   -1.227859 
C    2.666747    0.533415    -1.555684 
C    1.351872    0.712526    -1.133716 
C    0.668182    -0.262876   -0.396508 
C    1.396318    -1.394829   -0.055035 
C    2.723407    -1.587683   -0.449806 
H    -0.848381   -2.657255   2.117576  
H    3.169497    1.314873    -2.123846 
N    0.778451    1.994004    -1.390819 
Co   -1.129473   -0.032183   0.245113  
C    -2.944504   -0.987555   0.955775  
C    -3.27984    -0.11092    -0.090833 
C    -2.544796   -0.518951   -1.259117 
C    -1.822281   -1.699075   -0.937316 
C    -2.00507    -1.953566   0.452205  
C    -3.386759   -0.940189   2.385372  
C    -4.167471   1.095153    -0.034943 
C    -2.597355   0.170197    -2.589665 
C    -1.010048   -2.509679   -1.899599 
C    -1.428378   -3.062688   1.2808    
H    -2.224107   -3.693568   1.692405  
H    -2.522989   -1.029714   3.052438  
H    -3.90793    -0.008551   2.620544  
H    -4.066544   -1.770321   2.607535  
H    -4.602093   1.227189    0.95855   
H    -3.606709   2.003704    -0.280178 
H    -4.990745   1.001437    -0.751097 
H    -2.701355   1.25266     -2.45932  
H    -1.685027   -0.01102    -3.165627 
O    -0.444178   0.236851    1.986288  
H    0.640526    1.246731    1.853517  
H    -1.113923   0.690555    2.520564  
H    -1.668061   -3.174651   -2.470436 
O    2.962251    0.606135    1.905925  
O    1.262124    2.0551      1.605291  
C    2.533589    1.681095    1.551996  
H    -0.770201   -3.705064   0.690875  
H    -3.447129   -0.17488    -3.189825 
C    -0.288546   2.521975    -0.791148 
H    4.389282    -0.741845   -1.553249 
H    0.960213    -2.162063   0.578752  
H    -0.266744   -3.12139    -1.384685 
H    -0.470453   -1.872333   -2.605377 
C    3.421122    2.784915    1.006978  
H    3.508061    3.583538    1.750138  
H    4.409845    2.385145    0.783057  
H    2.97414     3.221187    0.108424  
O    -1.11771    1.867067    -0.127743 
C    -0.479435   4.008161    -0.905449 
H    -1.54219    4.231355    -1.007301 
H    -0.120708   4.44843     0.030592  
H    0.072611    4.444756    -1.740293 
O    3.305025    -2.744172   -0.034799 
C    4.695264    -2.868378   -0.225403 
H    4.987874    -3.799446   0.260415  
H    4.952855    -2.922723   -1.29113  
H    5.23118     -2.029742   0.234914  
H    1.37535     2.643148    -1.8862   
