57                                     
                                       
C    2.767127    2.442638    -1.072297 
C    1.632517    3.037979    -0.543861 
C    0.549361    2.241803    -0.15908  
C    0.5497      0.855015    -0.305666 
C    1.719846    0.299322    -0.829906 
C    2.829629    1.052962    -1.21391  
H    0.928028    -2.874105   -0.284731 
H    1.594399    4.117828    -0.409021 
N    -0.556945   2.926568    0.433543  
Co   -0.907058   -0.267936   0.24429   
C    -1.948388   -2.167971   -0.009597 
C    -2.875246   -1.121946   -0.149123 
C    -2.425632   -0.273407   -1.22367  
C    -1.262133   -0.859277   -1.790482 
C    -0.910466   -1.985416   -0.991351 
C    -1.903683   -3.243416   1.028036  
C    -4.081218   -0.843      0.695639  
C    -3.121304   0.968774    -1.6951   
C    -0.545799   -0.358764   -3.006625 
C    0.258479    -2.913059   -1.15206  
H    -0.08837    -3.945402   -1.273152 
H    -1.000559   -3.117201   1.635041  
H    -2.774663   -3.209794   1.686878  
H    -1.872294   -4.231157   0.555835  
H    -4.19654    -1.591099   1.482887  
H    -4.005029   0.138097    1.17796   
H    -4.991821   -0.850086   0.086923  
H    -3.656561   1.44972     -0.868804 
H    -2.408025   1.693509    -2.101213 
O    0.069996    -0.95847    1.704203  
H    1.535161    -0.80351    1.855232  
H    -0.274026   -0.564168   2.518935  
H    -1.068062   -0.699072   -3.90816  
O    3.100063    -2.100995   0.553119  
O    2.525136    -0.561724   2.089577  
C    3.385793    -1.226999   1.355012  
H    0.849813    -2.660034   -2.036008 
H    -3.856784   0.750037    -2.477848 
C    -1.535997   2.387395    1.157029  
H    3.613789    3.059024    -1.363026 
H    1.794698    -0.78297    -0.910411 
H    0.481674    -0.725821   -3.047451 
H    -0.501855   0.733872    -3.027812 
C    4.807739    -0.758041   1.576889  
H    5.505262    -1.418775   1.062641  
H    4.900909    0.259308    1.182224  
H    5.032152    -0.71853    2.645302  
O    -1.686536   1.157813    1.323517  
C    -2.517638   3.320115    1.814719  
H    -3.51904    3.099371    1.4359    
H    -2.518123   3.119059    2.888528  
H    -2.29067    4.37384     1.643992  
C    4.050523    0.369603    -1.777038 
H    4.140544    -0.643138   -1.371949 
H    3.988582    0.289658    -2.868784 
H    4.963989    0.924287    -1.541083 
H    -0.525951   3.936681    0.391859  
