57                                     
                                       
C    -2.974609   -2.142135   1.035197  
C    -2.844996   -0.790182   1.33376   
C    -1.670136   -0.135457   0.916311  
C    -0.619558   -0.7864     0.268031  
C    -0.827333   -2.132078   -0.045973 
C    -1.981865   -2.809778   0.326108  
H    1.971573    -2.510151   -1.944721 
C    -3.945256   -0.060323   2.0663    
N    -1.648244   1.280479    1.104     
Co   1.013703    0.084267    -0.252232 
C    3.123639    -0.122929   -0.723688 
C    2.98431     0.849597    0.281657  
C    2.331994    0.230754    1.405113  
C    2.153057    -1.14741    1.108434  
C    2.572128    -1.359108   -0.235558 
C    3.672711    0.042473    -2.106836 
C    3.349593    2.30155     0.215297  
C    1.969766    0.928827    2.681863  
C    1.606641    -2.172819   2.05325   
C    2.558464    -2.63263    -1.027351 
H    3.575785    -2.924636   -1.310909 
H    2.993376    -0.403834   -2.840621 
H    3.815161    1.094788    -2.366126 
H    4.641452    -0.460661   -2.201862 
H    3.822178    2.552155    -0.737158 
H    2.461857    2.93372     0.326828  
H    4.051577    2.559166    1.015403  
H    1.697238    1.971588    2.487716  
H    1.116936    0.445808    3.168368  
O    0.468147    -0.005795   -2.060208 
H    -0.917333   0.530781    -2.084579 
H    0.977906    0.637461    -2.576051 
H    2.396221    -2.504418   2.737057  
O    -2.783456   -0.964387   -2.297239 
O    -1.822249   1.039058    -1.92579  
C    -2.84331    0.192598    -1.949363 
H    2.126644    -3.456946   -0.454594 
H    2.804331    0.930952    3.39242   
C    -0.823971   2.151609    0.515946  
H    -0.070771   -2.659087   -0.6217   
H    1.222896    -3.046271   1.522588  
H    0.782506    -1.770809   2.649035  
C    -4.140119   0.850517    -1.513272 
H    -4.601516   1.345936    -2.373412 
H    -4.824129   0.088307    -1.137459 
H    -3.953814   1.613164    -0.751506 
O    0.249022    1.844898    -0.037904 
C    -1.245378   3.59392     0.503416  
H    -0.369313   4.230601    0.632152  
H    -1.673921   3.788555    -0.485288 
H    -1.989377   3.826697    1.268074  
H    -2.115635   -3.852727   0.056162  
H    -3.876535   -2.664743   1.342394  
H    -3.582828   0.429719    2.978924  
H    -4.426358   0.703463    1.440379  
H    -4.727775   -0.760756   2.365917  
H    -2.486937   1.679859    1.502117  
