60                                     
                                       
C    -2.863037   2.139888    0.931863  
C    -1.776258   2.818477    0.395091  
C    -0.638858   2.065202    0.046923  
C    -0.554287   0.687282    0.234203  
C    -1.687573   0.060369    0.758514  
C    -2.842667   0.753604    1.111718  
H    -0.592648   -3.092216   0.449081  
C    -1.836085   4.310599    0.173574  
N    0.438689    2.785327    -0.56048  
Co   0.982438    -0.353955   -0.245993 
C    2.192821    -2.128573   0.139897  
C    3.019311    -0.995416   0.209605  
C    2.483633    -0.11892    1.220183  
C    1.374463    -0.770192   1.825319  
C    1.135144    -1.97572    1.106394  
C    2.254402    -3.271624   -0.821915 
C    4.200749    -0.664935   -0.651232 
C    3.059699    1.209624    1.611101  
C    0.603252    -0.254516   3.000808  
C    0.054453    -2.99275    1.328048  
H    0.492517    -3.973047   1.547228  
H    1.351793    -3.265393   -1.442683 
H    3.127655    -3.20702    -1.475401 
H    2.30154     -4.224366   -0.283769 
H    4.39874     -1.457953   -1.375501 
H    4.032335    0.261791    -1.211722 
H    5.100808    -0.532083   -0.041328 
H    3.573485    1.674579    0.762127  
H    2.277441    1.897357    1.949211  
O    0.061357    -1.232055   -1.640299 
H    -1.414919   -1.269752   -1.782098 
H    0.3343      -0.837779   -2.481582 
H    1.141087    -0.488599   3.926738  
O    -2.833663   -2.62908    -0.374308 
O    -2.423488   -1.17777    -2.043275 
C    -3.209094   -1.88341    -1.26417  
H    -0.582919   -2.720658   2.173413  
H    3.791464    1.11257     2.421443  
C    1.431916    2.273811    -1.286047 
H    -1.687947   -1.022254   0.868297  
H    -0.389788   -0.704708   3.058017  
H    0.46599     0.829396    2.948501  
C    -4.673876   -1.64448    -1.561912 
H    -5.290278   -2.330071   -0.9811   
H    -4.919125   -0.61042    -1.29889  
H    -4.867118   -1.766338   -2.630305 
O    1.63257     1.048983    -1.434257 
C    2.365427    3.235804    -1.971602 
H    3.377424    3.076696    -1.589639 
H    2.37498     3.004327    -3.039204 
H    2.085888    4.281331    -1.830469 
H    -3.753832   2.704734    1.200286  
H    -1.064846   4.848781    0.741282  
H    -1.719598   4.573666    -0.885369 
H    -2.80105    4.704341    0.499376  
C    -4.028716   0.018648    1.684246  
H    -4.01096    -1.031695   1.377952  
H    -4.019813   0.049162    2.780194  
H    -4.972442   0.464066    1.353828  
H    0.380053    3.793796    -0.529293 
