66                                     
                                       
C    -2.123801   -3.071296   1.288433  
C    -2.363982   -1.706597   1.401625  
C    -1.382735   -0.822787   0.911112  
C    -0.172187   -1.249708   0.363881  
C    -0.007778   -2.631513   0.234113  
C    -0.960018   -3.537015   0.68609   
H    2.893214    -2.589686   -1.470355 
C    -3.646978   -1.203261   2.018981  
N    -1.743002   0.557816    0.917987  
Co   1.189846    -0.046835   -0.263863 
C    3.308523    0.188378    -0.707452 
C    2.894474    1.263242    0.098554  
C    2.374707    0.717395    1.325103  
C    2.543195    -0.690984   1.289761  
C    3.05537     -1.033793   0.003523  
C    3.850401    0.232284    -2.102509 
C    2.892127    2.721681    -0.24867  
C    1.794612    1.528433    2.444946  
C    2.221865    -1.635216   2.406791  
C    3.410261    -2.39169    -0.52479  
H    4.4883      -2.466393   -0.70717  
H    3.302998    -0.465852   -2.744426 
H    3.772575    1.231889    -2.538022 
H    4.906475    -0.059405   -2.116459 
H    1.870359    3.084133    -0.409383 
H    3.336944    3.312739    0.558325  
H    3.465917    2.915743    -1.157892 
H    1.310857    2.429502    2.053466  
H    1.041722    0.958671    2.998657  
O    0.752381    -0.504077   -2.045466 
H    -0.713679   -0.381469   -2.149828 
H    1.098177    0.175034    -2.644464 
H    3.058526    -1.675556   3.113443  
O    -2.077915   -2.361267   -2.172391 
O    -1.733853   -0.137025   -2.070349 
C    -2.474987   -1.233754   -1.986747 
H    3.140498    -3.180449   0.181559  
H    2.565537    1.84532     3.156654  
C    -1.152123   1.551238    0.25415   
H    0.882067    -3.010248   -0.261058 
H    -0.804245   -4.603823   0.558777  
H    2.03316     -2.645332   2.037829  
H    1.327857    -1.319941   2.951987  
C    -3.921523   -0.916475   -1.654785 
H    -4.45151    -0.63595    -2.570608 
H    -4.398882   -1.797022   -1.222988 
H    -3.97948    -0.068884   -0.965212 
O    -0.01799    1.464047    -0.262942 
C    -1.888358   2.883363    0.11987   
C    -1.042044   3.965045    0.80625   
C    -1.990663   3.166126    -1.388164 
C    -3.290763   2.86889     0.735425  
H    -0.961656   3.781257    1.883612  
H    -0.034998   3.994896    0.382799  
H    -1.507869   4.944884    0.660264  
H    -2.515671   2.354536    -1.900599 
H    -2.527347   4.106951    -1.548047 
H    -0.993366   3.247669    -1.826604 
H    -3.753929   3.849125    0.591826  
H    -3.941748   2.130207    0.253115  
H    -3.267741   2.679994    1.815804  
H    -2.870948   -3.770115   1.65501   
H    -3.464194   -0.533558   2.869412  
H    -4.274288   -0.66426    1.295632  
H    -4.241768   -2.040504   2.390404  
H    -2.66324    0.760398    1.279184  
