63                                     
                                       
C    -1.762239   -3.290192   1.679244  
C    -2.126611   -1.953876   1.732896  
C    -1.30598    -0.985277   1.144698  
C    -0.094545   -1.299896   0.527106  
C    0.213652    -2.662083   0.455341  
C    -0.591131   -3.647992   1.017569  
H    2.893682    -2.36628    -1.57153  
H    -3.060485   -1.658937   2.20982   
N    -1.837896   0.338273    1.129303  
Co   1.052801    0.017779    -0.27244  
C    3.07052     0.476237    -0.94446  
C    2.616574    1.528137    -0.129764 
C    2.293554    0.976686    1.160315  
C    2.62296     -0.403395   1.147213  
C    3.037194    -0.737343   -0.176239 
C    3.458895    0.524911    -2.389623 
C    2.405106    2.961789    -0.512937 
C    1.740176    1.762733    2.310867  
C    2.532951    -1.331862   2.318841  
C    3.489976    -2.06694    -0.702282 
H    4.540413    -2.023592   -1.011478 
H    2.944632    -0.264334   -2.947899 
H    3.209869    1.486434    -2.84613  
H    4.536942    0.366973    -2.505686 
H    1.336694    3.205112    -0.540211 
H    2.885555    3.630286    0.208858  
H    2.825447    3.17805     -1.497883 
H    1.073525    2.55301     1.949425  
H    1.164635    1.123792    2.987511  
O    0.489398    -0.565239   -1.979702 
H    -0.988351   -0.59142    -1.942148 
H    0.704098    0.11294     -2.638165 
H    3.432561    -1.238861   2.937666  
O    -2.152161   -2.689312   -1.791363 
O    -2.018662   -0.440676   -1.794711 
C    -2.649662   -1.597966   -1.636894 
H    3.402637    -2.849383   0.055404  
H    2.536259    2.238601    2.894889  
C    -1.417898   1.363291    0.388473  
H    -2.401876   -4.044468   2.125857  
H    1.106234    -2.966673   -0.084834 
H    -0.314589   -4.693704   0.925636  
H    2.440254    -2.372459   2.001685  
H    1.663276    -1.107096   2.942378  
C    -4.095127   -1.393572   -1.223775 
H    -4.603225   -0.740636   -1.938988 
H    -4.603394   -2.355027   -1.160134 
H    -4.123245   -0.900818   -0.245691 
O    -0.31557    1.383284    -0.199556 
C    -2.306059   2.599522    0.2617    
C    -1.582547   3.768568    0.946541  
C    -2.454836   2.874902    -1.243321 
C    -3.692497   2.416237    0.884917  
H    -1.458659   3.584789    2.019779  
H    -0.594777   3.924208    0.504582  
H    -2.165339   4.686777    0.821254  
H    -2.89112    2.010092    -1.751701 
H    -3.096864   3.749005    -1.392736 
H    -1.47856    3.071994    -1.691975 
H    -4.279299   3.324956    0.723938  
H    -4.238037   1.587951    0.418443  
H    -3.644222   2.256722    1.969113  
H    -2.75363    0.433855    1.545823  
