54                                     
                                       
C    2.93725     -1.968804   -1.639174 
C    2.725506    -0.598651   -1.628225 
C    1.545678    -0.100903   -1.063837 
C    0.55794     -0.935651   -0.519777 
C    0.813579    -2.307264   -0.518002 
C    1.985102    -2.817561   -1.069594 
H    -1.718557   -2.459676   2.001056  
H    3.475554    0.061421    -2.061254 
C    1.251688    1.323818    -0.83772  
Co   -0.907074   0.069952    0.210579  
C    -2.891333   0.043684    1.057586  
C    -2.826866   1.036769    0.060682  
C    -2.473298   0.392067    -1.177172 
C    -2.368185   -1.001245   -0.938655 
C    -2.552651   -1.218078   0.461938  
C    -3.154951   0.216302    2.521149  
C    -3.005759   2.517899    0.210529  
C    -2.277645   1.101228    -2.483012 
C    -2.10442    -2.042438   -1.983063 
C    -2.482524   -2.512123   1.217601  
H    -3.442818   -2.743164   1.691789  
H    -2.380028   -0.287834   3.10765   
H    -3.175614   1.270457    2.809891  
H    -4.12134    -0.223306   2.791307  
H    -3.201054   2.796171    1.24879   
H    -2.10735    3.051901    -0.118348 
H    -3.847496   2.871446    -0.394619 
H    -1.733398   2.039303    -2.334913 
H    -1.702541   0.489145    -3.183149 
O    -0.090589   0.035697    1.915438  
H    1.340393    0.372689    1.860598  
H    -0.46322    0.755116    2.44746   
H    -3.027646   -2.260145   -2.531507 
O    2.936312    -1.401764   1.76295   
O    2.308177    0.76008     1.720535  
C    3.185731    -0.227366   1.608363  
H    -2.232957   -3.347013   0.557956  
N    2.137122    2.282424    -1.123142 
H    -3.238067   1.338574    -2.954421 
H    3.845524    -2.376949   -2.070393 
H    0.106279    -2.991036   -0.054116 
H    2.171064    -3.887556   -1.045215 
H    -1.74654    -2.974585   -1.541998 
H    -1.349243   -1.712296   -2.701175 
C    4.573702    0.283418    1.271245  
H    5.218219    -0.55213    0.999857  
H    4.521826    1.006049    0.451522  
H    4.991033    0.804756    2.137946  
C    1.941933    3.637105    -0.634376 
H    0.960049    3.995668    -0.945575 
H    1.998697    3.658832    0.458521  
H    2.712562    4.27931     -1.060837 
O    0.136356    1.635545    -0.339879 
H    3.072904    1.989476    -1.361721 
