61                                     
                                       
C    -0.296255   3.76843     1.637235  
C    0.625487    2.736184    1.564913  
C    0.228839    1.510505    1.016861  
C    -1.071327   1.28604     0.537163  
C    -1.966888   2.353478    0.593871  
C    -1.587154   3.576451    1.138912  
H    -3.90169    0.454157    -1.806967 
H    1.64093     2.908041    1.918734  
C    1.124698    0.378356    0.728901  
Co   -1.267638   -0.463573   -0.227425 
C    -2.571611   -2.006826   -0.977827 
C    -1.671061   -2.572576   -0.054794 
C    -1.856684   -1.901097   1.205353  
C    -2.910142   -0.962382   1.057952  
C    -3.3089     -0.967709   -0.313138 
C    -2.720441   -2.319884   -2.434505 
C    -0.622367   -3.616234   -0.299866 
C    -1.067752   -2.185416   2.44773   
C    -3.480824   -0.117813   2.1556    
C    -4.344193   -0.110349   -0.978898 
H    -5.162983   -0.718961   -1.378346 
H    -2.756834   -1.396802   -3.021945 
H    -1.894942   -2.93288    -2.806112 
H    -3.651554   -2.867696   -2.616639 
H    -0.628224   -3.95396    -1.338828 
H    0.376073    -3.223217   -0.077288 
H    -0.790366   -4.491329   0.336877  
H    -0.020637   -2.386414   2.200725  
H    -1.09151    -1.334728   3.13484   
O    -0.961934   0.255615    -1.950119 
H    0.254429    1.059237    -1.961557 
H    -0.755275   -0.468151   -2.560443 
H    -4.205773   -0.701391   2.733979  
O    0.151228    3.446322    -1.705332 
O    1.221535    1.474244    -1.878867 
C    1.163536    2.783827    -1.674016 
H    -4.779039   0.606231    -0.27749  
H    -1.463241   -3.057763   2.980173  
N    2.430556    0.430264    1.040892  
H    -0.007823   4.728407    2.052475  
H    -2.967194   2.244405    0.180377  
H    -2.294772   4.400419    1.161135  
H    -3.992355   0.76334     1.763505  
H    -2.703459   0.234817    2.838413  
C    2.532972    3.368191    -1.38857  
H    3.150372    3.313276    -2.290033 
H    2.434011    4.406187    -1.072065 
H    3.03495     2.776516    -0.616704 
O    0.643791    -0.636196   0.165044  
C    3.403195    -0.507461   0.585976  
C    3.46007     -0.834845   -0.768725 
C    4.309603    -1.047158   1.493563  
C    4.430191    -1.730735   -1.203716 
H    2.759013    -0.364714   -1.452626 
C    5.287723    -1.92938    1.042366  
H    4.241119    -0.781703   2.544681  
C    5.344388    -2.277722   -0.30399  
H    4.482094    -1.991478   -2.256089 
H    5.998635    -2.349643   1.746585  
H    6.103101    -2.970643   -0.653584 
H    2.757696    1.23794     1.55253   
