57                                     
                                       
C    -1.492542   -3.80756    -0.101315 
C    -1.924475   -2.648742   0.529298  
C    -1.167818   -1.47608    0.406273  
C    0.06015     -1.46891    -0.282063 
C    0.443377    -2.632315   -0.946855 
C    -0.325659   -3.790399   -0.864742 
H    2.722169    -0.503272   -2.831378 
H    -2.830506   -2.683866   1.121249  
C    -1.478103   -0.137256   0.960413  
Co   0.969827    0.208166    -0.157315 
C    2.751303    1.367342    -0.559187 
C    2.353432    1.582498    0.773734  
C    2.366726    0.310312    1.443085  
C    2.817685    -0.671647   0.526754  
C    2.992079    -0.037216   -0.742527 
C    2.851781    2.395814    -1.645081 
C    1.89575     2.86355     1.403658  
C    1.978066    0.095298    2.874202  
C    3.063665    -2.111433   0.862616  
C    3.448181    -0.666203   -2.027456 
H    4.410139    -0.253015   -2.350142 
H    2.712175    1.942547    -2.631561 
H    2.10915     3.190343    -1.524802 
H    3.842213    2.864117    -1.64245  
H    1.916524    3.6894      0.688588  
H    0.869349    2.764956    1.774838  
H    2.537462    3.134833    2.248793  
H    1.091327    0.686284    3.123749  
H    1.744299    -0.955349   3.066885  
O    0.061186    0.79666     -1.709046 
H    -1.22602    1.367806    -1.494706 
H    0.563751    1.471554    -2.185301 
H    3.987556    -2.203577   1.44438   
O    -3.13623    -0.094132   -1.60763  
O    -2.138969   1.904272    -1.353348 
C    -3.183383   1.113206    -1.454412 
H    3.576955    -1.745642   -1.916115 
N    -2.651923   0.264475    1.459476  
H    2.785765    0.391044    3.553276  
H    -2.072143   -4.720303   -0.007845 
H    1.355245    -2.641309   -1.54     
H    -0.009205   -4.69009    -1.385761 
H    3.168934    -2.725283   -0.033776 
H    2.244788    -2.534753   1.450645  
C    -4.494166   1.867581    -1.329467 
H    -4.552444   2.638113    -2.102617 
H    -5.33202    1.177067    -1.426135 
H    -4.53877    2.379447    -0.362377 
C    -2.699753   1.637552    1.962622  
H    -1.927624   1.785881    2.7206    
H    -2.518952   2.340232    1.142859  
H    -3.680189   1.808545    2.407453  
O    -0.530831   0.70749     0.957492  
C    -3.906345   -0.465322   1.313392  
H    -3.91105    -1.010958   0.370114  
H    -4.085155   -1.137255   2.159808  
H    -4.716556   0.265935    1.275501  
