69                                     
                                       
C    -1.316669   -2.589594   2.487744  
C    -1.795552   -1.391779   1.974591  
C    -0.966986   -0.628491   1.143354  
C    0.360714    -0.992375   0.871904  
C    0.792908    -2.232149   1.34886   
C    -0.034334   -3.023261   2.143324  
H    2.793927    -2.144712   -1.176142 
H    -2.793252   -1.051934   2.239497  
C    -1.304435   0.684843    0.531467  
Co   1.253477    0.418842    -0.089189 
C    3.047846    0.847506    -1.205019 
C    2.650735    1.993448    -0.478237 
C    2.663461    1.647874    0.917512  
C    3.059403    0.297309    1.041883  
C    3.238536    -0.229323   -0.285099 
C    3.12233     0.683405    -2.68993  
C    2.26184     3.339527    -1.012536 
C    2.289859    2.576954    2.032396  
C    3.273787    -0.42113    2.341542  
C    3.626029    -1.624319   -0.686823 
H    4.473332    -1.601704   -1.380759 
H    2.353026    -0.021806   -3.020101 
H    2.967882    1.633554    -3.206949 
H    4.104932    0.296989    -2.980576 
H    2.089736    3.306035    -2.091283 
H    1.340725    3.694359    -0.537653 
H    3.042608    4.084186    -0.820838 
H    1.321731    3.050121    1.839075  
H    2.217033    2.042079    2.982671  
O    0.351542    -0.030676   -1.696782 
H    -0.534449   -1.173587   -1.712934 
H    -0.081964   0.759786    -2.050106 
H    4.119604    0.023032    2.877598  
O    0.640385    -3.217496   -1.567993 
O    -1.22398    -1.963262   -1.627234 
C    -0.565862   -3.099922   -1.476903 
H    3.933633    -2.215308   0.180231  
N    -2.524206   1.041466    0.094614  
H    3.038373    3.369142    2.145667  
H    -1.940514   -3.187933   3.14445   
H    1.781356    -2.600774   1.090306  
H    0.326058    -3.980341   2.510885  
H    3.499089    -1.476905   2.180566  
H    2.392956    -0.370362   2.987864  
C    -1.482974   -4.254604   -1.137685 
H    -1.855367   -4.108765   -0.118336 
H    -2.343542   -4.269208   -1.810798 
H    -0.935146   -5.194567   -1.195024 
O    -0.328187   1.491838    0.41949   
C    -2.717002   2.491809    -0.16797  
C    -3.09664    3.196666    1.13689   
C    -3.684251   2.837409    -1.294038 
H    -1.732603   2.852863    -0.467626 
H    -2.359299   2.979663    1.914892  
H    -3.123565   4.279888    0.983314  
H    -4.082278   2.877661    1.489347  
H    -3.387971   2.384081    -2.241927 
H    -4.716699   2.55533     -1.072609 
H    -3.663875   3.924048    -1.4204   
C    -3.576836   0.022863    -0.132627 
C    -3.931151   -0.176198   -1.611841 
C    -4.811126   0.250687    0.736675  
H    -3.110763   -0.915834   0.155473  
H    -3.02666    -0.173266   -2.224505 
H    -4.383763   -1.166872   -1.715084 
H    -4.643794   0.556801    -1.99245  
H    -4.543254   0.353402    1.792917  
H    -5.362217   1.147539    0.4377    
H    -5.489336   -0.601818   0.632986  
