64                                     
                                       
C    1.543135    2.911983    1.730836  
C    1.903117    1.611246    1.411911  
C    0.926187    0.7225      0.935226  
C    -0.394895   1.147922    0.707604  
C    -0.72169    2.468212    1.013091  
C    0.228421    3.337327    1.538806  
H    -3.577367   2.065734    -1.120044 
H    2.947521    1.326655    1.486622  
C    1.165115    -0.629956   0.37711   
Co   -1.442244   -0.143423   -0.236197 
C    -3.375679   -0.838468   -0.902436 
C    -2.707511   -1.895717   -0.255781 
C    -2.417072   -1.474      1.088753  
C    -2.966356   -0.177437   1.275362  
C    -3.498405   0.253251    0.024346  
C    -3.83003    -0.764468   -2.32734  
C    -2.260537   -3.203772   -0.835976 
C    -1.6807     -2.299012   2.100831  
C    -2.969013   0.590815    2.56124   
C    -4.126235   1.574239    -0.308991 
H    -5.167116   1.447703    -0.6267   
H    -3.541359   0.193973    -2.770806 
H    -3.402528   -1.567155   -2.93424  
H    -4.921019   -0.844165   -2.388734 
H    -2.529698   -3.288019   -1.891458 
H    -1.17278    -3.309074   -0.754647 
H    -2.72129    -4.043453   -0.304698 
H    -0.842967   -2.825344   1.631305  
H    -1.275306   -1.673868   2.901565  
O    -1.084203   0.75975     -1.856553 
H    0.375265    0.961027    -2.000886 
H    -1.294155   0.169884    -2.596235 
H    -3.815094   0.274774    3.181742  
O    1.233115    3.142003    -1.57915  
O    1.423032    0.948977    -2.051893 
C    1.902381    2.149579    -1.761095 
H    -4.125109   2.244911    0.554117  
H    -2.33481    -3.048963   2.559851  
H    2.294889    3.606738    2.091142  
H    -1.721017   2.8404      0.797602  
H    -0.039785   4.367193    1.756578  
H    -3.058333   1.665289    2.389356  
H    -2.049147   0.428941    3.128928  
C    3.416447    2.144329    -1.682643 
H    3.77331     3.103697    -1.308699 
H    3.742282    1.332542    -1.025255 
H    3.836057    1.95228     -2.674815 
O    0.222278    -1.142967   -0.290902 
C    3.280852    -1.203282   1.576021  
C    2.622137    -2.388125   -0.458517 
C    4.682055    -0.915778   1.04246   
H    3.287307    -2.179254   2.084958  
H    2.934436    -0.470102   2.301447  
C    4.000787    -2.128669   -1.068795 
H    2.606996    -3.347903   0.078477  
H    1.844218    -2.403842   -1.219668 
C    5.073478    -1.9838     0.014884  
H    5.394221    -0.899525   1.874211  
H    4.696614    0.076672    0.57532   
H    4.253875    -2.946063   -1.752047 
H    3.93479     -1.208673   -1.662502 
H    6.041185    -1.742463   -0.435426 
H    5.1935      -2.945702   0.53274   
N    2.32047     -1.308296   0.480682  
