55                                     
                                       
C    3.232618    -1.560529   -1.290213 
C    2.851045    -0.261098   -1.588959 
C    1.622024    0.227929    -1.145837 
C    0.727262    -0.560658   -0.414219 
C    1.153613    -1.846817   -0.097103 
C    2.383544    -2.350403   -0.518258 
H    -1.314543   -2.547196   2.083856  
H    3.526025    0.381385    -2.152372 
N    1.379332    1.615171    -1.379427 
Co   -0.954838   0.09426     0.248471  
C    -2.944734   -0.396391   0.963103  
C    -3.060681   0.550238    -0.069687 
C    -2.454539   -0.008961   -1.249183 
C    -2.042513   -1.334986   -0.94849  
C    -2.27441    -1.556554   0.439324  
C    -3.355495   -0.261983   2.396634  
C    -3.625238   1.936103    0.009465  
C    -2.344794   0.689557    -2.571368 
C    -1.459811   -2.305948   -1.928659 
C    -1.983528   -2.784989   1.249053  
H    -2.907333   -3.204701   1.662517  
H    -2.540768   -0.578515   3.0562    
H    -3.622684   0.767376    2.649529  
H    -4.222768   -0.896244   2.611482  
H    -4.017241   2.152399    1.005907  
H    -2.858051   2.683629    -0.219955 
H    -4.444263   2.060018    -0.706922 
H    -2.186803   1.763828    -2.428261 
H    -1.504026   0.302669    -3.154847 
O    -0.210969   0.160846    1.985179  
H    1.079594    0.889649    1.855986  
H    -0.751792   0.74545     2.537892  
H    -2.26389    -2.774454   -2.507407 
O    3.181803    -0.28685    1.867627  
O    1.873952    1.530754    1.611067  
C    3.018574    0.864985    1.534832  
H    -1.509875   -3.562469   0.644881  
H    -3.254287   0.564976    -3.170278 
C    0.479073    2.37986     -0.761454 
H    4.190994    -1.944036   -1.630406 
H    0.545361    -2.491094   0.531468  
H    -0.893287   -3.093617   -1.428171 
H    -0.778151   -1.811649   -2.626273 
C    4.137614    1.733519    0.990169  
H    4.414881    2.483499    1.737288  
H    5.002836    1.114219    0.754963  
H    3.799555    2.270068    0.098201  
O    -0.481524   1.938129    -0.099318 
C    0.660402    3.868744    -0.851311 
H    -0.314939   4.349701    -0.934759 
H    1.126387    4.189183    0.086243  
H    1.295073    4.170225    -1.687189 
H    2.113985    2.105727    -1.872058 
O    2.695339    -3.627538   -0.16127  
H    3.626341    -3.793671   -0.363552 
