64                                     
                                       
C    -1.226155   3.558598    2.012006  
C    -0.075925   2.786839    1.929765  
C    -0.108408   1.566812    1.247431  
C    -1.270141   1.055948    0.663453  
C    -2.393741   1.885451    0.73149   
C    -2.389139   3.110602    1.392947  
H    -4.296791   0.088251    -1.394688 
H    0.855076    3.137006    2.373896  
N    1.14187     0.899292    1.124038  
Co   -1.320464   -0.626323   -0.274785 
C    -2.572839   -2.236357   -1.02256  
C    -1.509465   -2.795236   -0.292693 
C    -1.569575   -2.266962   1.045868  
C    -2.720055   -1.441807   1.145149  
C    -3.305614   -1.357084   -0.152705 
C    -2.89523    -2.408776   -2.474154 
C    -0.433186   -3.713998   -0.786326 
C    -0.593529   -2.591753   2.136671  
C    -3.208439   -0.777678   2.395468  
C    -4.530528   -0.60295    -0.577145 
H    -5.306747   -1.292243   -0.928113 
H    -2.995652   -1.430885   -2.956699 
H    -2.120616   -2.974014   -2.998461 
H    -3.843745   -2.943228   -2.597661 
H    -0.607222   -4.011524   -1.82302  
H    0.550618    -3.234321   -0.732895 
H    -0.398025   -4.624538   -0.178686 
H    0.413467    -2.727167   1.726706  
H    -0.547659   -1.790889   2.880786  
O    -1.354641   0.311076    -1.913995 
H    -0.406372   1.422882    -1.826777 
H    -0.995928   -0.261049   -2.609677 
H    -3.78172    -1.49315    2.995775  
O    -1.316059   3.620367    -1.691238 
O    0.368119    2.128006    -1.690854 
C    -0.144266   3.346826    -1.563513 
H    -4.953402   -0.024848   0.248111  
H    -0.865649   -3.517145   2.657272  
C    1.452678    -0.095685   0.288641  
H    -1.204113   4.51007     2.533534  
H    -3.303411   1.575625    0.224099  
H    -3.851398   0.076334    2.173558  
H    -2.378684   -0.407172   3.003538  
C    0.914305    4.380923    -1.230099 
H    0.478956    5.378721    -1.273948 
H    1.291695    4.195225    -0.219176 
H    1.755315    4.301396    -1.924636 
O    0.610626    -0.774289   -0.335818 
H    1.923187    1.315817    1.613569  
H    -3.285067   3.723185    1.40704   
C    2.892111    -0.436957   0.181625  
C    3.820111    0.514439    -0.065624 
C    4.926775    -2.127      -0.287179 
C    5.649279    -0.954845   0.359187  
S    3.208228    -2.182272   0.280491  
O    5.155376    0.286158    -0.118191 
H    5.546282    -0.998668   1.449369  
H    6.709345    -0.955052   0.096937  
H    4.963474    -2.031838   -1.375455 
H    5.389252    -3.072287   0.004563  
C    3.529687    1.948767    -0.406325 
H    2.50035     2.091119    -0.740799 
H    3.746247    2.609144    0.442382  
H    4.207091    2.238028    -1.214857 
