57                                     
                                       
C    2.680116    -2.100526   -2.031062 
C    2.493627    -0.723227   -1.975607 
C    1.434955    -0.199556   -1.226903 
C    0.528811    -1.037133   -0.548071 
C    0.762698    -2.413423   -0.583148 
C    1.828688    -2.944587   -1.319065 
H    -1.721037   -2.827416   1.892102  
H    3.183784    -0.070354   -2.502246 
C    1.224541    1.23935     -0.997725 
Co   -0.91636    -0.081477   0.297201  
C    -2.894996   -0.241933   1.118628  
C    -2.87587    0.826452    0.201726  
C    -2.455373   0.298576    -1.072992 
C    -2.313559   -1.111072   -0.943974 
C    -2.503213   -1.442899   0.431559  
C    -3.228461   -0.178364   2.577839  
C    -3.317644   2.236217    0.455922  
C    -2.29451    1.086842    -2.338266 
C    -2.032045   -2.051587   -2.074363 
C    -2.44399    -2.800013   1.069505  
H    -3.422289   -3.076037   1.475923  
H    -2.601972   -0.862979   3.158842  
H    -3.117364   0.831842    2.982482  
H    -4.268573   -0.480861   2.74051   
H    -3.116262   2.558963    1.4821    
H    -2.840097   2.941862    -0.228639 
H    -4.398657   2.315251    0.298663  
H    -1.917158   2.094161    -2.136985 
H    -1.592294   0.598947    -3.019666 
O    -0.065152   -0.328997   2.056875  
H    0.915327    -0.140263   2.000096  
H    -0.410713   0.193229    2.797216  
H    -2.950041   -2.200861   -2.652836 
H    2.583636    -1.663835   0.71634   
H    0.497137    4.839657    0.123624  
O    2.467506    0.347597    1.909562  
H    2.819367    2.052977    -2.191839 
H    -2.162845   -3.569074   0.346991  
C    0.718052    3.83656     -0.220589 
C    1.749012    3.581562    -1.122059 
H    -3.25249    1.186945    -2.859177 
C    -0.033567   2.764297    0.233634  
C    2.009817    2.274256    -1.506361 
H    3.501043    -2.513672   -2.606942 
H    0.107556    -3.092208   -0.041137 
H    1.992603    -4.017779   -1.336023 
N    0.196878    1.505303    -0.157388 
O    3.487115    -1.443139   1.026651  
H    -1.694527   -3.026642   -1.719621 
H    -1.264872   -1.661112   -2.748013 
C    3.48518     -0.288248   1.670265  
H    2.352073    4.395198    -1.51182  
C    4.857883    0.155073    2.07368   
H    5.303303    -0.601973   2.724417  
H    5.49082     0.236349    1.186645  
H    4.800273    1.110381    2.591221  
H    -0.848839   2.908682    0.934937  
