63                                     
                                       
C    -1.81913    -3.619888   1.467385  
C    -1.964443   -2.269885   1.772775  
C    -1.128648   -1.331258   1.159467  
C    -0.11055    -1.724802   0.268993  
C    -0.019348   -3.076728   -0.062622 
C    -0.867121   -4.021078   0.530799  
H    2.648582    -1.559867   -2.796374 
H    -2.742664   -1.962376   2.46497   
C    -1.324683   0.125898    1.242709  
Co   1.006845    -0.254644   -0.270301 
C    2.931225    0.545002    -0.827449 
C    2.614252    1.03236     0.453698  
C    2.364819    -0.099154   1.306118  
C    2.690772    -1.281787   0.573351  
C    2.944924    -0.90025    -0.767889 
C    3.248894    1.333125    -2.062518 
C    2.589941    2.453047    0.927654  
C    1.991208    -0.034299   2.756558  
C    2.788033    -2.650777   1.167703  
C    3.273953    -1.790967   -1.928268 
H    4.320827    -1.66796    -2.224933 
H    2.733781    0.931576    -2.942917 
H    2.984707    2.388618    -1.957002 
H    4.321576    1.283871    -2.278036 
H    2.65091     3.167529    0.104825  
H    1.689135    2.679821    1.505476  
H    3.451849    2.621518    1.58252   
H    1.380884    0.849062    2.967051  
H    1.41649     -0.915715   3.055424  
O    0.246197    -0.292158   -2.093147 
H    -0.736582   -0.445283   -2.017201 
H    0.346326    0.508629    -2.631251 
H    3.74763     -2.734141   1.690065  
H    -2.091987   -2.558562   -1.072594 
H    -2.953729   0.167469    2.673282  
O    -2.377165   -0.372746   -1.840723 
C    -1.767513   2.844206    0.939306  
C    -2.541733   2.101438    1.865064  
H    2.882594    0.017069    3.391034  
C    -0.750854   2.156963    0.225668  
C    -2.342724   0.755802    1.999771  
H    -2.46698    -4.353672   1.934351  
H    0.72629     -3.413271   -0.780447 
H    -0.78109    -5.069722   0.262438  
N    -0.517851   0.825327    0.442505  
O    -3.04048    -2.440909   -1.288977 
H    2.753467    -3.43567    0.410374  
H    1.991554    -2.8414     1.890823  
C    -3.263434   -1.202178   -1.696443 
H    3.122013    -2.843727   -1.6799   
C    -4.71279    -0.929524   -1.960263 
H    -5.073317   -1.615547   -2.731156 
H    -5.291668   -1.123228   -1.053921 
H    -4.841492   0.101539    -2.282998 
H    -3.311079   2.609486    2.440167  
C    -1.98673    4.221508    0.689126  
C    -0.004936   2.860784    -0.750722 
C    -1.24493    4.884045    -0.254962 
C    -0.251839   4.190254    -0.985601 
H    -1.419924   5.936142    -0.450665 
H    -2.760708   4.736191    1.250932  
H    0.321892    4.718482    -1.740597 
H    0.772759    2.3366      -1.2968   
