56                                     
                                       
C    2.80862     -2.257468   -1.680959 
C    2.616461    -0.882972   -1.780005 
C    1.489959    -0.328653   -1.173228 
C    0.525658    -1.080125   -0.473341 
C    0.773386    -2.449654   -0.357814 
C    1.898984    -3.030518   -0.958866 
H    -1.676344   -2.482501   2.244777  
H    3.326357    -0.249287   -2.303977 
C    1.226955    1.100051    -1.084638 
Co   -0.93054    0.013531    0.237995  
C    -2.847984   -0.009071   1.179013  
C    -2.856894   0.92969     0.128283  
C    -2.532286   0.223685    -1.087131 
C    -2.389349   -1.155767   -0.77403  
C    -2.509351   -1.297677   0.643475  
C    -3.092009   0.271179    2.630098  
C    -3.179876   2.389694    0.251347  
C    -2.427501   0.821114    -2.457675 
C    -2.166114   -2.245487   -1.776079 
C    -2.427883   -2.559463   1.451738  
H    -3.391384   -2.775685   1.924286  
H    -2.472587   -0.36443    3.271326  
H    -2.908668   1.320492    2.881575  
H    -4.136106   0.057551    2.883203  
H    -2.665495   2.859863    1.095776  
H    -2.910749   2.935643    -0.655295 
H    -4.255061   2.526744    0.40574   
H    -2.081084   1.857306    -2.417765 
H    -1.724298   0.260383    -3.079198 
O    0.000794    0.076811    1.98253   
H    0.948296    0.372457    1.858461  
H    -0.391248   0.645485    2.663408  
H    -3.114792   -2.479505   -2.270881 
H    2.445884    -1.412511   1.101025  
H    1.556799    3.990435    -1.89212  
O    2.483453    0.881028    1.593649  
C    1.568155    3.298739    -1.051071 
H    -3.400223   0.813109    -2.960214 
C    0.168334    2.970935    -0.48249  
H    3.672287    -2.723003   -2.142925 
H    0.091011    -3.08723    0.200188  
H    2.066506    -4.098894   -0.859214 
O    3.365085    -1.164134   1.333364  
H    -1.796244   -3.15958    -1.309247 
H    -1.44647    -1.950776   -2.543846 
C    3.456138    0.136318    1.553131  
H    -0.639296   3.355796    -1.113451 
C    4.868487    0.598813    1.729688  
H    5.373975    -0.031922   2.464213  
H    5.398155    0.485893    0.779275  
H    4.881296    1.640714    2.043027  
H    -2.171404   -3.417866   0.827404  
N    0.160496    1.506951    -0.480565 
H    2.264891    3.646362    -0.286376 
H    0.029185    3.363747    0.52831   
O    2.062741    2.022175    -1.531551 
