59                                     
                                       
C    3.184575    -0.925937   -1.682717 
C    2.524953    0.295445    -1.779698 
C    1.299218    0.466716    -1.130025 
C    0.698206    -0.575231   -0.390878 
C    1.397698    -1.771775   -0.274202 
C    2.630237    -1.952709   -0.919614 
H    -0.850942   -2.792053   2.208217  
H    2.976083    1.101778    -2.350286 
C    0.569143    1.745742    -1.079239 
Co   -1.042152   -0.132719   0.308294  
C    -2.858181   -0.930115   1.126524  
C    -3.18734    -0.034883   0.09042   
C    -2.538836   -0.502189   -1.110337 
C    -1.893782   -1.735482   -0.814661 
C    -2.016235   -1.96488    0.589376  
C    -3.265952   -0.838831   2.565163  
C    -4.131023   1.127008    0.173973  
C    -2.619985   0.149729    -2.458113 
C    -1.230571   -2.622178   -1.822716 
C    -1.489839   -3.125069   1.383085  
H    -2.315986   -3.700795   1.812454  
H    -2.469622   -1.19387    3.227259  
H    -3.538764   0.1808      2.853103  
H    -4.140122   -1.472644   2.74933   
H    -4.106616   1.616372    1.152675  
H    -3.922275   1.876488    -0.593733 
H    -5.15667    0.778056    0.013261  
H    -2.624477   1.241043    -2.375282 
H    -1.770246   -0.133128   -3.084985 
O    -0.262116   0.149942    2.09663   
H    0.574409    0.694826    2.042698  
H    -0.82475    0.552258    2.77611   
H    -2.000829   -3.164316   -2.381718 
H    2.697736    -0.340657   1.085764  
H    -1.495954   4.916981    -0.438361 
O    1.865449    1.682553    1.902316  
H    -0.905816   -3.806766   0.761344  
C    -0.899721   4.036901    -0.647097 
C    0.224277    4.091792    -1.46698  
H    -3.535127   -0.149198   -2.979882 
C    -1.24938    2.813879    -0.094721 
H    4.137115    -1.076052   -2.183969 
H    1.012044    -2.606093   0.307931  
N    -0.5495     1.695749    -0.318105 
O    3.463154    0.210594    1.351133  
H    -0.575335   -3.358243   -1.353802 
H    -0.632143   -2.05118    -2.537363 
C    3.047654    1.389802    1.784379  
H    0.523727    5.027162    -1.928328 
C    4.174491    2.319535    2.112948  
H    4.792207    1.871756    2.895949  
H    4.808336    2.451706    1.232719  
H    3.778338    3.276186    2.447093  
H    -2.116715   2.718097    0.549948  
C    0.969084    2.939697    -1.677751 
H    1.857115    2.964833    -2.298192 
C    3.327786    -3.264316   -0.791441 
O    2.872505    -4.188137   -0.163022 
H    4.29908     -3.345693   -1.317674 
