64                                     
                                       
C    3.013775    0.558977    -1.279733 
C    1.88543     1.322427    -1.542317 
C    0.640605    0.980372    -1.006097 
C    0.500038    -0.168639   -0.203154 
C    1.64169     -0.902857   0.094932  
C    2.904298    -0.559886   -0.436698 
H    -0.215281   -2.786223   2.396792  
H    1.998356    2.20302     -2.168806 
C    -0.568985   1.799043    -1.125832 
Co   -1.329614   -0.516428   0.304189  
C    -2.696633   -2.01523    1.014358  
C    -3.268007   -1.381549   -0.106382 
C    -2.354934   -1.5446     -1.210678 
C    -1.271334   -2.355124   -0.774636 
C    -1.435612   -2.583964   0.626261  
C    -3.257729   -2.07851    2.402081  
C    -4.626675   -0.752772   -0.185672 
C    -2.558743   -1.022334   -2.601229 
C    -0.178833   -2.872233   -1.658518 
C    -0.551579   -3.381      1.540333  
H    -1.087329   -4.252528   1.930066  
H    -2.465825   -2.010162   3.155035  
H    -3.989789   -1.286956   2.586799  
H    -3.767804   -3.03504    2.559329  
H    -4.92195    -0.274476   0.753435  
H    -4.683817   -0.009211   -0.984533 
H    -5.374675   -1.521873   -0.405909 
H    -3.070746   -0.055252   -2.593771 
H    -1.60307    -0.887775   -3.114989 
O    -0.968216   0.152859    2.121578  
H    -0.463503   1.017355    2.073728  
H    -1.733986   0.305538    2.696652  
H    -0.56466    -3.703396   -2.258377 
H    1.965024    1.054835    1.338868  
H    -3.861363   3.76909     -0.904873 
O    0.220515    2.481625    1.953244  
H    0.332076    -3.751205   1.015948  
C    -2.926253   3.230055    -0.996105 
C    -1.863359   3.72666     -1.749885 
H    -3.163733   -1.717041   -3.193162 
C    -2.759694   2.012701    -0.357237 
H    3.974158    0.826516    -1.694069 
H    1.572317    -1.781454   0.736588  
N    -1.62499    1.305983    -0.434774 
O    2.361104    1.904246    1.627329  
H    0.672236    -3.237903   -1.081733 
H    0.191636    -2.10236    -2.340492 
C    1.409853    2.770448    1.931055  
H    -1.9582     4.670513    -2.276993 
C    1.941378    4.135791    2.24011   
H    2.67362     4.065456    3.048293  
H    2.461387    4.527556    1.362066  
H    1.124009    4.795509    2.523697  
H    -3.555215   1.580303    0.240854  
C    -0.676688   3.013192    -1.808718 
H    0.167281    3.391477    -2.3735   
N    3.987741    -1.365419   -0.090545 
H    3.775133    -2.152226   0.509062  
C    5.322214    -1.21569    -0.454393 
O    5.71611     -0.316223   -1.161646 
C    6.225915    -2.28542    0.119442  
H    6.199303    -2.27078    1.213357  
H    5.915182    -3.278794   -0.218468 
H    7.242596    -2.092104   -0.218527 
