64                                     
                                       
C    0.222656    4.315436    -0.748364 
C    -0.915171   3.522345    -0.770725 
C    -0.802129   2.140497    -0.583333 
C    0.428785    1.508905    -0.406957 
C    1.553678    2.343529    -0.358759 
C    1.465748    3.725485    -0.523794 
H    2.873823    -2.256674   1.355076  
H    -1.893125   3.976281    -0.915832 
N    -2.023799   1.404896    -0.537602 
Co   0.578374    -0.393991   -0.195013 
C    1.809454    -2.145131   -0.512623 
C    2.354516    -0.967389   -1.145399 
C    1.429307    -0.537023   -2.139091 
C    0.263433    -1.345074   -2.01495  
C    0.533557    -2.382308   -1.047488 
C    -0.433756   -3.464663   -0.679208 
C    2.52858     -2.915882   0.551178  
C    3.730011    -0.43389    -0.875164 
C    1.621514    0.56835     -3.12912  
C    -0.995699   -1.228566   -2.820461 
H    -0.014046   -4.144612   0.065637  
H    -1.360785   -3.045228   -0.275134 
H    -0.692507   -4.058917   -1.561287 
H    -1.855854   -1.599125   -2.252509 
H    -1.195799   -0.191061   -3.104021 
H    -0.929078   -1.820142   -3.739731 
H    0.694313    1.120447    -3.30325  
H    2.374484    1.285241    -2.796506 
H    1.950857    0.144516    -4.083926 
H    1.630717    0.909764    3.60426   
C    0.889049    -0.563137   2.700062  
O    1.192534    0.021865    3.816487  
O    -1.2604     -0.500397   0.432278  
H    3.923262    0.48321     -1.435627 
O    1.238074    -0.063934   1.616997  
O    2.134405    2.276531    2.905702  
H    1.980738    3.151173    3.289574  
H    1.773302    2.295645    2.002218  
H    0.620547    -2.487628   3.556101  
H    -0.874769   -1.599051   3.248766  
H    -0.002554   -2.328791   1.877489  
H    1.902455    -3.695899   0.989395  
H    3.415032    -3.398833   0.126629  
H    -2.856146   1.911663    -0.811814 
C    -2.214062   0.220385    0.047887  
H    3.875866    -0.220772   0.189448  
H    2.362616    4.336583    -0.493618 
H    0.137215    5.386706    -0.894984 
C    -3.648322   -0.210484   0.345441  
C    -3.970126   0.331553    1.752711  
C    -4.647673   0.35322     -0.674383 
C    -3.733466   -1.739273   0.355058  
H    -3.281164   -0.079912   2.496394  
H    -3.907643   1.423893    1.786433  
H    -4.987444   0.039149    2.028927  
H    -4.364135   0.103969    -1.70239  
H    -5.631878   -0.082834   -0.484269 
H    -4.77443    1.439037    -0.591514 
H    -4.744436   -2.042146   0.641205  
H    -3.525201   -2.158594   -0.635096 
H    -3.029049   -2.168133   1.071512  
H    4.48758     -1.166493   -1.172985 
H    2.536255    1.898494    -0.204039 
C    0.112546    -1.83521    2.841864  
