59                                     
                                       
C    -2.768456   -1.217866   2.534806  
C    -2.871359   -0.23306    1.555211  
C    -1.755899   0.045514    0.750149  
C    -0.512606   -0.585907   0.969744  
C    -0.457195   -1.600123   1.927322  
C    -1.57421    -1.926388   2.69655   
H    4.012002    -0.904443   -1.416583 
H    -3.800388   0.306495    1.430801  
C    -1.68505    0.943994    -0.432051 
Co   0.911699    0.204143    -0.063268 
C    2.767781    -0.051163   0.871152  
C    1.953679    0.769687    1.704547  
C    1.555679    1.900765    0.937733  
C    2.254006    1.856422    -0.324089 
C    2.993949    0.665051    -0.362699 
C    3.82022     0.167036    -1.508445 
C    3.400772    -1.362144   1.232862  
C    1.575993    0.524968    3.131263  
C    0.638131    2.998304    1.382097  
C    2.122889    2.881137    -1.407866 
H    1.071592    3.04745     -1.663652 
H    2.544984    3.836746    -1.080952 
H    0.142209    3.460671    0.523968  
H    -0.135362   2.622332    2.058544  
H    1.193402    3.780522    1.910387  
H    0.539837    0.80902     3.33219   
H    1.699119    -0.521183   3.417047  
H    2.22405     1.127047    3.777485  
H    3.294804    -2.093297   0.424671  
H    -0.878734   -2.582967   -0.85462  
C    0.865523    -2.378638   -1.728651 
O    -0.158575   -3.079264   -1.333443 
O    -0.545951   1.106938    -0.964902 
H    3.326691    0.341817    -2.468132 
O    1.086319    -1.20469    -1.425618 
O    -2.575662   -2.519999   -0.511026 
H    -2.9484     -3.389102   -0.72313  
H    -2.760064   -2.370695   0.431886  
C    1.796832    -3.141436   -2.622509 
H    2.167078    -4.019795   -2.086549 
H    1.248302    -3.500793   -3.496533 
H    2.625952    -2.507383   -2.9306   
H    4.470992    -1.238228   1.427493  
H    4.788429    0.677939    -1.525009 
H    2.649404    2.572387    -2.313298 
H    2.949481    -1.789919   2.131202  
N    -2.728046   1.542028    -1.005621 
C    -2.649408   2.470135    -2.120795 
H    -3.030701   3.440386    -1.795525 
H    -1.609586   2.548635    -2.429136 
H    -3.252011   2.099728    -2.95364  
O    -3.983865   1.398024    -0.468704 
C    -4.691799   0.335453    -1.125742 
H    -5.658515   0.291813    -0.623623 
H    -4.8396     0.568029    -2.184119 
H    -4.150466   -0.609638   -1.012953 
H    -3.621872   -1.435473   3.168757  
H    0.4736      -2.138677   2.095329  
H    -1.510748   -2.71401    3.441894  
