58                                     
                                       
C    -3.832517   -0.268807   1.214151  
C    -3.1632     0.946335    1.167895  
C    -1.826085   0.979238    0.754886  
C    -1.132869   -0.179622   0.404329  
C    -1.853159   -1.37749    0.437387  
C    -3.190119   -1.453873   0.835938  
H    2.960796    -1.961265   -1.64282  
H    -3.677857   1.864466    1.445385  
N    -1.217525   2.262757    0.616745  
Co   0.735643    -0.085632   -0.023425 
C    2.738596    -0.861379   0.184856  
C    1.765325    -1.648955   0.911365  
C    1.197031    -0.826213   1.918338  
C    1.70012     0.496322    1.724483  
C    2.706941    0.445944    0.692158  
C    3.495413    1.631637    0.22905   
C    3.575854    -1.401694   -0.931876 
C    1.512645    -3.105925   0.667317  
C    0.231197    -1.240356   2.983415  
C    1.392549    1.693298    2.573681  
H    4.129649    1.386208    -0.624351 
H    2.835446    2.452282    -0.070704 
H    4.13931     1.996646    1.035506  
H    1.532905    2.624714    2.015367  
H    0.363989    1.669736    2.943926  
H    2.060936    1.728706    3.440852  
H    -0.508437   -0.46045    3.182918  
H    -0.310946   -2.147375   2.708659  
H    0.779132    -1.438088   3.91111   
H    -1.087206   0.670252    -2.288599 
C    -0.060482   -0.909459   -2.782613 
O    -0.923929   0.035453    -3.029613 
O    0.428679    1.65798     -0.830219 
H    0.650421    -3.46492    1.23376   
O    0.556942    -1.045772   -1.723213 
O    -2.409927   1.954535    -1.943349 
H    -2.85926    2.034274    -2.798212 
H    -3.046908   1.519565    -1.353186 
C    0.14145     -1.851124   -3.928351 
H    0.799622    -2.666067   -3.633076 
H    -0.825055   -2.238173   -4.258804 
H    0.579523    -1.301149   -4.765936 
H    4.089032    -0.607584   -1.477427 
H    4.334148    -2.085456   -0.536104 
H    -1.73583    3.049745    0.988216  
C    -0.25693    2.547131    -0.266168 
H    1.328166    -3.299014   -0.39454  
C    -0.042411   3.984032    -0.6303   
H    -0.393933   4.667343    0.145163  
H    1.014152    4.161697    -0.832492 
H    -0.608772   4.172714    -1.548492 
C    -3.9198     -2.770858   0.890963  
H    -3.359123   -3.557214   0.380173  
H    -4.072792   -3.08783    1.9279    
H    -4.906445   -2.697365   0.424669  
H    2.380371    -3.701894   0.968752  
H    -4.86845    -0.297017   1.540388  
H    -1.347682   -2.301391   0.15299   
