58                                     
                                       
C    -3.403482   -0.339855   2.134355  
C    -3.30406    0.403134    0.959346  
C    -2.041877   0.465439    0.336716  
C    -0.905987   -0.166085   0.846048  
C    -1.067819   -0.919253   2.012896  
C    -2.29823    -1.008529   2.657008  
H    3.690925    -1.588181   -0.102616 
C    -4.513191   1.083623    0.36409   
N    -1.978969   1.138643    -0.921659 
Co   0.790535    0.041112    -0.02738  
C    2.914821    0.402334    0.085669  
C    2.290209    0.37833     1.391171  
C    1.36575     1.453041    1.456576  
C    1.307461    2.046642    0.158655  
C    2.322285    1.431015    -0.661609 
C    2.599301    1.811908    -2.083005 
C    3.977958    -0.560103   -0.342742 
C    2.664401    -0.576202   2.484389  
C    0.573242    1.888317    2.648609  
C    0.484658    3.237117    -0.234354 
H    3.332144    1.147351    -2.543488 
H    1.687422    1.772861    -2.687835 
H    2.990322    2.833151    -2.132147 
H    0.277235    3.241151    -1.30956  
H    -0.470838   3.258656    0.296705  
H    1.019178    4.164598    -0.001936 
H    -0.422736   2.237964    2.364792  
H    0.445449    1.07807     3.369105  
H    1.095068    2.711157    3.14917   
H    -0.992709   -1.976296   -1.309941 
C    0.590879    -2.874413   -0.630354 
O    -0.552369   -2.859136   -1.258689 
O    -0.136033   0.085358    -1.737868 
H    1.977595    -0.507633   3.33101   
O    1.13687     -1.886697   -0.132238 
O    -2.805928   -1.473401   -1.674638 
H    -3.171713   -2.270219   -2.087526 
H    -3.183308   -1.44875    -0.779941 
H    0.512201    -4.934307   -0.108722 
H    1.426859    -4.581027   -1.573862 
H    2.137159    -4.19059    0.020664  
H    4.171463    -0.502575   -1.415491 
H    4.914264    -0.343731   0.182301  
H    -2.786896   1.6895      -1.182386 
C    -1.155004   0.799377    -1.915496 
H    2.658107    -1.609372   2.12192   
C    -1.507226   1.246177    -3.301214 
H    -2.157317   2.12325     -3.303526 
H    -0.598637   1.453945    -3.867009 
H    -2.034857   0.417151    -3.784847 
H    -2.400605   -1.591701   3.566716  
H    -4.364294   -0.400912   2.637212  
H    -4.385615   2.171353    0.300544  
H    -4.732417   0.709268    -0.644124 
H    -5.396189   0.902456    0.979323  
C    1.217161    -4.231603   -0.559289 
H    -0.208407   -1.439244   2.433971  
H    3.67167     -0.359309   2.855067  
