67                                     
                                       
C    1.911462    -3.641083   -0.418154 
C    2.385364    -2.365322   -0.720229 
C    1.495684    -1.285169   -0.556786 
C    0.174765    -1.444354   -0.136259 
C    -0.241621   -2.740793   0.181509  
C    0.610909    -3.83268    0.046737  
H    -3.914701   0.810727    1.419581  
C    3.817624    -2.147673   -1.142078 
N    2.046283    0.020851    -0.721396 
Co   -1.000493   0.067072    -0.06642  
C    -2.94178    0.912106    -0.491398 
C    -2.851812   -0.474259   -0.885591 
C    -1.865409   -0.575718   -1.902038 
C    -1.247486   0.706989    -2.032654 
C    -1.972598   1.635747    -1.200587 
C    -1.706986   3.105255    -1.071857 
C    -3.898276   1.444758    0.528292  
C    -3.739743   -1.559179   -0.355132 
C    -1.515234   -1.795648   -2.694878 
C    -0.154591   1.055537    -2.998998 
H    -2.544236   3.676796    -1.484951 
H    -1.579302   3.405956    -0.027388 
H    -0.807792   3.395908    -1.617707 
H    0.484255    1.856097    -2.612436 
H    0.482285    0.1909      -3.204743 
H    -0.574601   1.398518    -3.950467 
H    -0.441677   -1.858409   -2.890643 
H    -1.809043   -2.711701   -2.178848 
H    -2.037563   -1.763084   -3.657197 
H    0.807007    -0.259606   2.363231  
C    -1.060181   -0.196221   2.914843  
O    0.220803    -0.178803   3.157268  
O    0.502642    1.173532    0.478045  
H    -3.416076   -2.546352   -0.692361 
O    -1.569312   -0.220385   1.791347  
O    2.522964    -0.880846   2.044577  
H    2.885799    -1.007002   2.934497  
H    2.439929    -1.770366   1.66258   
H    -2.956513   -0.255257   3.890885  
H    -1.611236   -1.010059   4.802687  
H    -1.71502    0.746401    4.69883   
H    -3.634224   2.46036     0.832406  
H    -4.913105   1.468876    0.116946  
H    2.972892    0.067985    -1.122628 
C    1.631922    1.113206    -0.075472 
H    -3.748113   -1.558185   0.739926  
H    0.26688     -4.832275   0.292926  
C    2.576785    2.301011    0.059492  
C    2.984704    2.34101     1.545427  
C    3.827102    2.171708    -0.815821 
C    1.820864    3.58518     -0.30363  
H    2.103738    2.433259    2.186782  
H    3.527928    1.433357    1.822793  
H    3.632806    3.20582     1.715306  
H    3.576253    2.076899    -1.878936 
H    4.433854    3.074115    -0.705168 
H    4.460069    1.328438    -0.513847 
H    2.459361    4.449567    -0.099987 
H    1.559215    3.607229    -1.36735  
H    0.907202    3.680609    0.286582  
H    2.577928    -4.490615   -0.53661  
H    3.893323    -1.649061   -2.116183 
H    4.360032    -1.539836   -0.405782 
H    4.341836    -3.100869   -1.230158 
H    -4.769961   -1.4128     -0.696038 
H    -1.259546   -2.901501   0.533457  
C    -1.902691   -0.182026   4.152467  
