56                                     
                                       
C    -4.028646   1.179161    -0.230009 
C    -3.057513   1.992423    -0.792775 
C    -1.706665   1.652706    -0.68688  
C    -1.28431    0.518019    0.008915  
C    -2.28043    -0.297908   0.546659  
C    -3.637903   0.012219    0.430817  
H    2.090756    -2.957558   0.483507  
H    -3.358872   2.886404    -1.334149 
N    -0.772088   2.497731    -1.359124 
Co   0.568152    0.022339    0.146382  
C    2.114091    -0.960221   1.286745  
C    0.859446    -0.898494   2.002433  
C    0.550962    0.471979    2.225101  
C    1.518752    1.248003    1.522536  
C    2.522909    0.35187     1.000207  
C    3.726512    0.793303    0.225016  
C    2.79433     -2.244987   0.927458  
C    0.119142    -2.1051     2.499619  
C    -0.584889   1.023116    3.02802   
C    1.568021    2.744172    1.438571  
H    4.342107    -0.055591   -0.080774 
H    3.434656    1.342982    -0.677144 
H    4.351036    1.453728    0.83449   
H    2.118328    3.067178    0.548968  
H    0.563476    3.175759    1.394935  
H    2.076493    3.169395    2.310352  
H    -1.0066     1.920231    2.567341  
H    -1.39265    0.297916    3.141704  
H    -0.222687   1.290882    4.026513  
H    -0.75429    -3.32931    -1.973036 
C    0.692745    -2.135936   -1.84146  
O    0.133968    -3.153023   -2.421398 
O    0.996343    1.068195    -1.432283 
H    -0.794174   -1.825191   3.029072  
O    0.135204    -1.583194   -0.87934  
O    -2.071729   -3.24709    -1.019945 
H    -2.957847   -3.568107   -1.238938 
H    -2.163587   -2.317135   -0.751281 
C    2.000087    -1.704309   -2.427402 
H    2.604681    -2.582434   -2.661146 
H    1.799778    -1.171321   -3.361822 
H    2.523435    -1.033235   -1.746489 
H    3.621503    -2.094577   0.230488  
H    3.200523    -2.715251   1.82936   
H    -1.122263   3.391593    -1.681073 
C    0.454068    2.157335    -1.747187 
H    -0.156981   -2.773508   1.675629  
C    1.219317    3.117951    -2.611241 
H    0.650621    4.013782    -2.86418  
H    2.137785    3.407473    -2.093343 
H    1.507994    2.602642    -3.530722 
O    -4.519397   -0.86231    0.97538   
H    -5.423247   -0.525745   0.887342  
H    0.741644    -2.675706   3.196511  
H    -2.023305   -1.196837   1.106482  
H    -5.079059   1.441812    -0.317208 
