66                                     
                                       
C    -1.908308   3.844524    0.781443  
C    -0.623243   3.336923    0.900769  
C    -0.378755   1.984786    0.654246  
C    -1.409607   1.104787    0.307795  
C    -2.68555    1.64208     0.160561  
C    -2.947281   2.994314    0.395862  
H    -2.428232   -3.210411   -1.72784  
H    0.192106    4.003372    1.17323   
N    0.973037    1.541204    0.747316  
Co   -1.059631   -0.761706   0.026428  
C    -1.636821   -2.827297   0.228841  
C    -2.612952   -1.92765    0.807255  
C    -1.992402   -1.234829   1.878656  
C    -0.6097     -1.592153   1.873418  
C    -0.416187   -2.632147   0.892519  
C    0.90287     -3.282248   0.609109  
C    -1.934572   -3.748511   -0.912938 
C    -4.045902   -1.852043   0.374617  
C    -2.639376   -0.281731   2.833446  
C    0.435176    -1.107125   2.832614  
H    0.83736     -3.972944   -0.233374 
H    1.667523    -2.535749   0.366573  
H    1.24181     -3.846292   1.484076  
H    1.436052    -1.18344    2.392965  
H    0.260613    -0.06481    3.118186  
H    0.431661    -1.709563   3.747553  
H    -1.97365    0.547553    3.086969  
H    -3.555633   0.145666    2.421676  
H    -2.894266   -0.811699   3.757707  
H    0.002286    0.864531    -2.183753 
C    -1.64703    0.020811    -2.767508 
O    -0.655606   0.854059    -2.920736 
O    0.732832    -0.302753   -0.557387 
H    -4.567626   -1.019909   0.852628  
O    -1.818889   -0.700506   -1.780557 
O    1.638946    1.990728    -2.134057 
H    2.379952    1.496933    -2.521642 
H    1.405251    2.666264    -2.787079 
C    -2.617505   0.019691    -3.905862 
H    -3.241286   -0.871609   -3.86324  
H    -3.25131    0.907571    -3.810906 
H    -2.088498   0.08331     -4.857528 
H    -4.121762   -1.724115   -0.710129 
H    -2.606705   -4.548823   -0.585989 
H    1.642556    2.229518    1.066183  
C    1.473545    0.488309    0.100381  
H    -1.028118   -4.209011   -1.310014 
O    -4.226026   3.414427    0.240483  
H    -4.293892   4.358759    0.4428    
C    2.927477    0.273553    0.057617  
C    3.792088    0.672215    1.027419  
C    5.149166    -0.865912   -1.017327 
H    5.656926    -1.06821    -1.9627   
C    5.712043    0.380277    -0.359748 
H    6.780749    0.27681     -0.167417 
C    3.446078    1.206435    2.389328  
H    3.590576    2.292697    2.429228  
H    2.431997    0.958873    2.699669  
H    4.152175    0.769777    3.100263  
O    5.130442    0.58668     0.922449  
S    3.394689    -0.635258   -1.407948 
H    5.27557     -1.727158   -0.357075 
H    5.537601    1.264004    -0.982868 
H    -2.098959   4.896575    0.974457  
H    -4.575576   -2.773147   0.639657  
H    -3.526609   1.013007    -0.126497 
