58                                     
                                       
C    -3.591395   -2.975153   -0.724027 
C    -2.22091    -3.150335   -0.887205 
C    -1.366336   -2.074044   -0.635353 
C    -1.83124    -0.795339   -0.239151 
C    -3.208295   -0.671137   -0.047319 
C    -4.077756   -1.744384   -0.289055 
O    -0.16383    0.328366    1.955388  
N    0.761675    -1.157217   -0.311152 
C    0.080064    -2.201106   -0.640035 
Co   -0.353989   0.473012    -0.013737 
C    -0.370596   1.410965    -1.864008 
C    -1.39414    2.018129    -1.058979 
C    -0.775341   2.536613    0.099836  
C    0.65553     2.367745    -0.038636 
C    0.897917    1.733483    -1.271647 
C    -0.578684   0.730087    -3.183124 
C    -2.832319   2.144692    -1.447713 
C    -1.43784    3.209303    1.262904  
C    1.663238    2.836393    0.96559   
C    2.225629    1.448818    -1.900993 
H    -3.207051   1.248291    -1.945985 
H    -3.474299   2.360329    -0.590811 
H    -2.928192   2.982748    -2.147113 
H    -2.496556   2.947749    1.332652  
H    -0.955522   2.92699     2.203092  
H    -1.366909   4.29782     1.165907  
H    1.409485    2.481104    1.97023   
H    2.66665     2.480236    0.721207  
H    1.691023    3.930547    0.997351  
H    -1.790855   -1.348917   1.738229  
C    -0.568128   -0.423351   2.848884  
O    -1.459031   -1.362747   2.665774  
H    0.162619    -0.058642   -3.342744 
H    -1.568684   0.269966    -3.236018 
H    -0.49019    1.442131    -4.010558 
H    3.029161    1.357976    -1.16714  
H    -1.818949   -4.113468   -1.190917 
H    2.205355    0.531445    -2.493879 
H    2.473146    2.273895    -2.578336 
H    -4.273876   -3.796636   -0.912714 
H    -3.632732   0.268702    0.297841  
H    -5.144258   -1.613843   -0.131991 
C    -0.062149   -0.329777   4.251761  
H    -0.904731   -0.181384   4.931631  
H    0.413716    -1.276485   4.522155  
H    0.649135    0.489202    4.340475  
C    2.180863    -1.210193   -0.225532 
C    2.805973    -0.526152   0.818988  
C    2.941418    -1.885953   -1.181458 
C    4.193354    -0.538089   0.915081  
H    2.200849    0.001441    1.550898  
C    4.329156    -1.886366   -1.080649 
H    2.451859    -2.372784   -2.020581 
C    4.957585    -1.214874   -0.034475 
H    4.679579    -0.01537    1.732515  
H    4.919943    -2.402099   -1.830307 
H    6.039895    -1.21376    0.037334  
H    0.575665    -3.152769   -0.844862 
