62                                     
                                       
C    -3.656908   -2.239854   -0.509451 
C    -2.34285    -2.674804   -0.630784 
C    -1.288676   -1.776752   -0.454537 
C    -1.512609   -0.404501   -0.164257 
C    -2.827171   0.003742    -0.010201 
C    -3.902371   -0.897858   -0.188286 
O    0.302001    0.563131    1.949502  
N    0.968129    -1.237463   -0.179946 
C    0.103293    -2.16081    -0.443236 
Co   0.162955    0.585272    -0.020818 
C    0.756223    1.259626    -1.909416 
C    -0.48916    1.86619     -1.588881 
C    -0.317382   2.586915    -0.367256 
C    1.080665    2.537058    -0.025978 
C    1.744501    1.732117    -0.969118 
C    1.023764    0.371352    -3.086394 
C    -1.725055   1.7759      -2.428017 
C    -1.346245   3.393611    0.369185  
C    1.684796    3.203336    1.170044  
C    3.221463    1.500378    -1.06975  
H    -1.874577   0.769087    -2.82591  
H    -2.622508   2.05264     -1.872798 
H    -1.626885   2.464145    -3.274748 
H    -2.348928   3.226385    -0.030186 
H    -1.363206   3.149862    1.436624  
H    -1.131611   4.463534    0.279759  
H    0.992048    3.197919    2.015519  
H    2.607223    2.70882     1.483582  
H    1.922685    4.247032    0.937894  
H    -1.683923   -0.687947   1.870323  
C    -0.253848   0.004401    2.900566  
O    -1.348558   -0.702944   2.796893  
H    1.876348    -0.286864   -2.895811 
H    0.156095    -0.253926   -3.317061 
H    1.253882    0.966443    -3.97657  
H    3.7144      1.572631    -0.098011 
H    -2.142823   -3.72003    -0.852922 
H    3.460905    0.521421    -1.492201 
H    3.657117    2.263061    -1.724871 
H    -3.090802   1.029202    0.240024  
C    0.296863    0.076382    4.288135  
H    -0.495824   0.352722    4.986366  
H    0.655624    -0.917214   4.573664  
H    1.116054    0.791977    4.32812   
H    -4.471731   -2.939085   -0.648652 
O    -5.122869   -0.369864   -0.025338 
C    -6.254529   -1.214291   -0.182315 
H    -6.237001   -2.029295   0.548632  
H    -7.122747   -0.582161   -0.005883 
H    -6.297002   -1.624261   -1.196611 
H    0.422366    -3.194611   -0.595758 
C    2.354335    -1.542124   -0.121304 
C    3.107335    -1.021104   0.932896  
C    2.965799    -2.314904   -1.110917 
C    4.468679    -1.292099   1.004195  
H    2.616       -0.410544   1.686212  
C    4.332305    -2.57194    -1.036262 
H    2.378408    -2.685811   -1.946659 
C    5.084683    -2.063832   0.019652  
H    5.053311    -0.896272   1.828367  
H    4.809046    -3.164232   -1.810247 
H    6.149358    -2.264127   0.073196  
