67                                     
                                       
C    1.595476    2.881991    -0.688245 
C    0.222283    3.102338    -0.723481 
C    -0.651151   2.052593    -0.438231 
C    -0.175092   0.754427    -0.125559 
C    1.202008    0.580195    -0.051733 
C    2.096153    1.626654    -0.341256 
O    -1.822606   -0.64637    1.982229  
N    -2.748309   1.056639    -0.026517 
C    -2.111536   2.204665    -0.354601 
Co   -1.614472   -0.556728   0.019663  
C    -1.388409   -1.299852   -1.91507  
C    -0.57803    -2.10288    -1.032074 
C    -1.437401   -2.67887    -0.073304 
C    -2.791959   -2.292658   -0.378242 
C    -2.754646   -1.498515   -1.551106 
C    -0.893824   -0.526035   -3.099609 
C    0.884104    -2.376749   -1.200383 
C    -1.048637   -3.554882   1.076978  
C    -3.990267   -2.73653    0.407152  
C    -3.917705   -0.908023   -2.287979 
H    1.402961    -1.552804   -1.694259 
H    1.385413    -2.570459   -0.248487 
H    1.004575    -3.269678   -1.823858 
H    0.010444    -3.451168   1.324342  
H    -1.635309   -3.315637   1.968402  
H    -1.23294    -4.605457   0.827914  
H    -3.893893   -2.467254   1.464833  
H    -4.912791   -2.29333    0.023947  
H    -4.105202   -3.823876   0.352899  
H    -0.034311   0.875357    1.905843  
C    -1.287255   -0.09227    2.949019  
O    -0.303172   0.761103    2.848826  
H    -1.557734   0.311808    -3.331219 
H    0.102867    -0.116796   -2.914354 
H    -0.841468   -1.166573   -3.986451 
H    -4.500904   0.102831    0.490903  
H    -5.903837   2.162532    0.272442  
H    -4.777536   4.297091    -0.421067 
H    -2.322322   4.304209    -0.785869 
H    -4.845073   -0.971361   -1.714741 
C    -4.067308   1.056253    0.202134  
H    -0.151453   4.091839    -0.969989 
H    -3.747145   0.141583    -2.545922 
H    -4.069008   -1.456613   -3.223588 
C    -4.205436   3.382645    -0.302523 
C    -2.834057   3.388801    -0.513376 
H    2.281565    3.69217     -0.919244 
H    1.64301     -0.372285   0.227772  
C    -1.722096   -0.358231   4.353778  
H    -0.880314   -0.774074   4.913926  
H    -1.997533   0.585517    4.831022  
H    -2.561703   -1.050349   4.362926  
C    -4.838718   2.200327    0.078711  
C    3.550495    1.390071    -0.300041 
H    4.195168    2.259175    -0.488629 
N    4.015083    0.224415    -0.084517 
C    5.411213    0.034847    -0.015988 
C    6.280984    0.969677    0.558044  
C    5.920195    -1.167744   -0.515608 
C    7.646677    0.711367    0.599019  
H    5.88272     1.875998    1.004989  
C    7.287582    -1.410511   -0.489677 
H    5.226534    -1.890229   -0.933751 
C    8.154678    -0.471732   0.067274  
H    8.315739    1.433271    1.05636   
H    7.677989    -2.338619   -0.894578 
H    9.221122    -0.668619   0.101247  
