61                                     
                                       
C    4.017688    2.144638    -0.161589 
C    2.722878    2.63473     -0.337272 
C    1.670189    1.703979    -0.265144 
C    1.865572    0.314936    -0.057478 
C    3.176467    -0.11185    0.152497  
C    4.241556    0.79591     0.098636  
O    -0.067654   -0.795948   1.904067  
N    -0.60384    1.156412    -0.120946 
C    0.270991    2.092838    -0.275342 
Co   0.177397    -0.674587   -0.060724 
C    0.097277    -1.307333   -2.035173 
C    0.967192    -2.204603   -1.327133 
C    0.224838    -2.773419   -0.268786 
C    -1.148289   -2.331839   -0.392734 
C    -1.229677   -1.483276   -1.512345 
C    0.472177    -0.481827   -3.228883 
C    2.373714    -2.525807   -1.719827 
C    0.714824    -3.723882   0.780486  
C    -2.258601   -2.757728   0.51791   
C    -2.462774   -0.872446   -2.101146 
H    2.921985    -1.64296    -2.054926 
H    2.932864    -2.993579   -0.906644 
H    2.345431    -3.239897   -2.550487 
H    1.799844    -3.671331   0.899675  
H    0.256162    -3.505348   1.749106  
H    0.456169    -4.754224   0.514319  
H    -1.982649   -2.609081   1.567519  
H    -3.174      -2.194291   0.322724  
H    -2.48016    -3.821151   0.380081  
H    1.813593    0.604898    1.96949   
C    0.406184    -0.248304   2.905218  
O    1.44106     0.550589    2.880264  
H    -0.118964   0.43767     -3.275872 
H    1.526835    -0.196761   -3.193301 
H    0.30093     -1.035026   -4.158505 
H    -3.262517   -0.747232   -1.368131 
H    -2.258896   0.104072    -2.546461 
H    -2.829692   -1.528503   -2.898483 
H    4.857097    2.831896    -0.208843 
H    3.391455    -1.157099   0.360613  
H    5.256127    0.444542    0.261756  
C    -0.178193   -0.445436   4.266368  
H    0.602098    -0.781952   4.952995  
H    -0.547237   0.515899    4.635253  
H    -0.990744   -1.168345   4.224581  
C    -1.991323   1.461386    -0.04984  
C    -2.77684    0.761606    0.868562  
C    -2.573331   2.400475    -0.9035   
C    -4.141283   1.020044    0.943997  
H    -2.311793   0.027336    1.520402  
C    -3.940409   2.647184    -0.825282 
H    -1.966757   2.903483    -1.651749 
C    -4.726391   1.960186    0.096904  
H    -4.750306   0.483662    1.664595  
H    -4.393502   3.368438    -1.497245 
H    -5.792629   2.151862    0.150987  
H    -0.044673   3.135958    -0.337624 
C    2.478542    4.104184    -0.572019 
H    1.905116    4.27628     -1.488173 
H    1.926175    4.556462    0.25874   
H    3.424701    4.640066    -0.667379 
