65                                     
                                       
C    3.782981    1.811406    -0.262679 
C    2.52327     2.392168    -0.395696 
C    1.39396     1.558921    -0.310112 
C    1.49036     0.152157    -0.118847 
C    2.756024    -0.38082    0.053853  
C    3.905628    0.437622    -0.024886 
O    -0.485395   -0.790668   1.894195  
N    -0.90846    1.187414    -0.115397 
C    0.039796    2.052815    -0.280607 
Co   -0.274397   -0.697443   -0.076313 
C    -0.434576   -1.336295   -2.043953 
C    0.352648    -2.307982   -1.335713 
C    -0.430888   -2.796197   -0.267845 
C    -1.755207   -2.223346   -0.38016  
C    -1.765849   -1.379504   -1.507142 
C    0.004823    -0.560248   -3.248739 
C    1.716304    -2.770244   -1.738446 
C    -0.023181   -3.781715   0.784227  
C    -2.892443   -2.538214   0.542496  
C    -2.938944   -0.653603   -2.087284 
H    2.33743     -1.9528     -2.109663 
H    2.245349    -3.262159   -0.919244 
H    1.6075      -3.504055   -2.544988 
H    1.063022    -3.830962   0.893602  
H    -0.450616   -3.514974   1.755047  
H    -0.380467   -4.784667   0.527661  
H    -2.594318   -2.411639   1.589011  
H    -3.752352   -1.891842   0.35258   
H    -3.214214   -3.576773   0.412454  
H    1.594212    0.302087    1.929882  
C    0.085973    -0.329263   2.887419  
O    1.232507    0.297926    2.847071  
H    -0.500477   0.408684    -3.300544 
H    1.081239    -0.371903   -3.222809 
H    -0.223203   -1.104707   -4.171348 
H    -3.723731   -0.466672   -1.351392 
H    -2.648285   0.306499    -2.520057 
H    -3.363259   -1.264142   -2.892283 
H    4.662672    2.44083     -0.329581 
H    2.925289    -1.43802    0.240556  
C    -0.497233   -0.442765   4.258897  
H    0.229993    -0.911026   4.926378  
H    -0.69628    0.561653    4.64318   
H    -1.417993   -1.022278   4.22801   
C    -2.262676   1.606067    -0.012784 
C    -3.086864   0.968862    0.91747   
C    -2.783093   2.596475    -0.848592 
C    -4.424232   1.336838    1.019906  
H    -2.670738   0.196107    1.55766   
C    -4.123111   2.955511    -0.741603 
H    -2.151692   3.053148    -1.605973 
C    -4.946362   2.328349    0.190544  
H    -5.061441   0.84677     1.749208  
H    -4.527137   3.717511    -1.399848 
H    -5.991985   2.606707    0.266403  
H    -0.194724   3.118037    -0.327049 
C    2.397858    3.880486    -0.606731 
H    1.8123      4.109783    -1.502205 
H    1.907625    4.362411    0.245892  
H    3.380791    4.34011     -0.724763 
O    5.072734    -0.198641   0.143872  
C    6.274672    0.555766    0.085298  
H    6.292699    1.322109    0.867137  
H    7.080283    -0.15691    0.251782  
H    6.393854    1.023707    -0.897312 
