66                                     
                                       
C    3.604105    2.003731    -0.110447 
C    2.324091    2.562863    -0.186679 
C    1.232177    1.705325    -0.11607  
C    1.332202    0.304159    0.021562  
C    2.626053    -0.202563   0.167818  
C    3.758252    0.626138    0.087397  
O    -0.688826   -1.025764   1.768741  
N    -1.071905   1.305945    0.047073  
C    -0.140455   2.190696    -0.057796 
Co   -0.412008   -0.578764   -0.139218 
C    -0.633788   -0.810116   -2.191192 
C    0.312028    -1.789514   -1.752265 
C    -0.319913   -2.582846   -0.763441 
C    -1.712844   -2.192175   -0.704066 
C    -1.911308   -1.138322   -1.611643 
C    -0.373334   0.258099    -3.209399 
C    1.688152    -1.949007   -2.318362 
C    0.275089    -3.70888    0.024219  
C    -2.732503   -2.829181   0.18762   
C    -3.211487   -0.4957     -1.982658 
H    2.238432    -1.00413    -2.336899 
H    2.27119     -2.679902   -1.758127 
H    1.596532    -2.302147   -3.351434 
H    1.365073    -3.667396   0.006404  
H    -0.045953   -3.66399    1.069521  
H    -0.045782   -4.673783   -0.382459 
H    -2.354904   -2.917475   1.210838  
H    -3.658546   -2.249887   0.213787  
H    -2.973906   -3.836154   -0.168595 
H    1.169719    0.355304    1.963986  
C    -0.153809   -0.670656   2.825848  
O    0.868667    0.137951    2.884339  
H    -1.018543   1.126922    -3.046537 
H    0.665103    0.598397    -3.162537 
H    -0.563194   -0.110288   -4.223345 
H    -3.945092   -0.535589   -1.175116 
H    2.221192    3.638383    -0.287146 
H    -3.084637   0.550848    -2.267934 
H    -3.627566   -1.026219   -2.846517 
H    4.750236    0.207949    0.192684  
C    -0.645154   -1.141211   4.156553  
H    0.158949    -1.679905   4.66461   
H    -0.899172   -0.27486    4.7727    
H    -1.512351   -1.786586   4.030468  
C    -2.434579   1.691992    0.177555  
C    -3.253126   0.941349    1.024093  
C    -2.9625     2.762406    -0.547699 
C    -4.593793   1.283105    1.164321  
H    -2.83137    0.101335    1.56949   
C    -4.307533   3.089709    -0.408391 
H    -2.334797   3.310188    -1.245272 
C    -5.124207   2.354881    0.448082  
H    -5.227808   0.707743    1.831128  
H    -4.719703   3.914155    -0.980604 
H    -6.17298    2.61192     0.550965  
H    -0.371237   3.257786    -0.031155 
O    2.713017    -1.535636   0.427006  
O    4.629728    2.870545    -0.204985 
C    3.998402    -2.125035   0.511256  
H    4.573386    -1.709324   1.345778  
H    3.831999    -3.188182   0.685288  
H    4.554842    -1.990987   -0.423915 
C    5.951269    2.36834     -0.118594 
H    6.605515    3.230812    -0.23315  
H    6.131665    1.899854    0.855475  
H    6.151641    1.647931    -0.919542 
