66                                     
                                       
C    -3.28997    -2.588724   -0.368058 
C    -1.948266   -2.950681   -0.405901 
C    -0.968964   -1.965301   -0.28613  
C    -1.287348   -0.590362   -0.118726 
C    -2.62717    -0.260964   -0.014829 
C    -3.640173   -1.248767   -0.172514 
O    0.450184    0.886825    1.799335  
N    1.242391    -1.250239   -0.007713 
C    0.444574    -2.250776   -0.191398 
Co   0.327146    0.530965    -0.143861 
C    0.794363    0.872452    -2.140094 
C    -0.42855    1.549096    -1.857082 
C    -0.179215   2.461194    -0.791923 
C    1.238143    2.446089    -0.525614 
C    1.841415    1.493576    -1.363768 
C    0.987787    -0.208633   -3.159989 
C    -1.712993   1.337045    -2.594771 
C    -1.1425     3.413383    -0.148159 
C    1.909778    3.301726    0.501899  
C    3.309337    1.24104     -1.52239  
H    -1.847366   0.288451    -2.873085 
H    -2.576517   1.649199    -2.007294 
H    -1.685422   1.926452    -3.518194 
H    -2.156624   3.256615    -0.515767 
H    -1.156712   3.289942    0.940384  
H    -0.847692   4.446267    -0.361509 
H    1.286179    3.401684    1.394225  
H    2.874849    2.887874    0.804078  
H    2.08398     4.305725    0.099962  
H    -1.119853   -0.839894   1.871936  
C    0.033944    0.322233    2.815019  
O    -0.82322    -0.667824   2.797898  
H    1.864342    -0.818888   -2.92255  
H    0.117103    -0.869769   -3.206179 
H    1.138257    0.217653    -4.157491 
H    3.870089    1.498365    -0.621712 
H    3.531503    0.199942    -1.767492 
H    3.684619    1.86417     -2.342043 
C    0.483171    0.717643    4.184022  
H    -0.3881     0.958154    4.798063  
H    0.987821    -0.133132   4.650699  
H    1.157216    1.570028    4.124762  
C    2.640334    -1.458453   0.133199  
C    3.333964    -0.693772   1.073562  
C    3.324147    -2.372905   -0.671824 
C    4.705364    -0.86425    1.223648  
H    2.791506    0.029032    1.677555  
C    4.698961    -2.529668   -0.520735 
H    2.78817     -2.931981   -1.434032 
C    5.391289    -1.779593   0.426802  
H    5.242515    -0.276707   1.961198  
H    5.230211    -3.232676   -1.153742 
H    6.463156    -1.902272   0.538894  
H    0.827244    -3.273777   -0.20991  
O    -4.901454   -0.794652   -0.120298 
C    -5.961542   -1.722932   -0.304763 
H    -5.957098   -2.482868   0.483496  
H    -6.878566   -1.139505   -0.247686 
H    -5.89021    -2.202972   -1.285958 
H    -1.673351   -3.995263   -0.524094 
H    -4.055712   -3.34648    -0.477763 
O    -2.997594   1.04411     0.170519  
C    -3.591193   1.336213    1.432163  
H    -3.755322   2.414285    1.449243  
H    -4.543914   0.816329    1.552856  
H    -2.911417   1.058523    2.247884  
