56                                     
                                       
C    3.23682     1.839032    -0.04117  
C    2.036151    2.543788    0.038869  
C    0.844736    1.827717    0.032346  
C    0.768605    0.419297    -0.049977 
C    1.987765    -0.251258   -0.116302 
C    3.200345    0.453095    -0.115697 
O    -1.342903   -0.380489   1.864916  
N    -1.520646   1.68839     0.029676  
C    -0.476533   2.441203    0.110573  
Co   -1.087218   -0.239437   -0.089121 
C    -0.745875   -1.286359   -1.897601 
C    -0.910862   -2.200046   -0.800864 
C    -2.239626   -2.032005   -0.299305 
C    -2.861609   -0.975492   -1.000947 
C    -1.926843   -0.505424   -1.992204 
C    0.427863    -1.186128   -2.822916 
C    0.051124    -3.262244   -0.349168 
C    -2.840913   -2.798758   0.836324  
C    -4.260375   -0.484627   -0.767979 
C    -2.158138   0.593387    -2.983912 
H    0.986862    -3.218177   -0.91026  
H    0.293501    -3.179313   0.716267  
H    -0.376644   -4.256608   -0.511015 
H    -2.070303   -3.22956    1.481344  
H    -3.491464   -2.167751   1.447661  
H    -3.444503   -3.624986   0.445092  
H    -4.434895   -0.23221    0.283314  
H    -4.481145   0.397894    -1.372208 
H    -4.984895   -1.257003   -1.04521  
H    0.999904    -0.529754   1.868414  
C    -0.62807    -0.674255   2.82845   
O    0.674184    -0.786947   2.760521  
H    0.66497     -0.146993   -3.065086 
H    1.327192    -1.64012    -2.403221 
H    0.194009    -1.705636   -3.75842  
H    -3.425453   2.397205    -0.565509 
H    -2.340719   4.535822    -0.609464 
H    -2.900275   1.310713    -2.625148 
C    -2.704159   2.523075    0.24534   
H    2.0277      3.627725    0.101698  
H    -1.235264   1.141259    -3.192326 
H    -2.523879   0.181346    -3.930196 
C    -2.107239   3.950691    0.281199  
H    4.187849    2.359099    -0.047747 
H    2.029064    -1.337555   -0.182083 
C    -1.19111    -0.930313   4.18796   
H    -0.84017    -1.901196   4.546663  
H    -0.81307    -0.171968   4.879239  
H    -2.278388   -0.903188   4.154948  
H    -2.363563   4.517597    1.175161  
H    -3.190521   2.240476    1.184418  
O    -0.670456   3.735771    0.293807  
C    4.469856    -0.35603    -0.196402 
F    4.629311    -1.094855   0.909402  
F    4.417599    -1.20577    -1.232451 
F    5.549248    0.41198     -0.341556 
