52                                     
                                       
C    3.920952    -1.028372   -1.354743 
C    3.571768    0.146719    -0.694136 
C    2.244678    0.313418    -0.316259 
C    1.229679    -0.618562   -0.579681 
C    1.632321    -1.795594   -1.219387 
C    2.959698    -2.004764   -1.603457 
O    -0.629854   -1.076951   1.674168  
N    0.525864    1.417424    0.841913  
N    1.811064    1.442026    0.435948  
Co   -0.536771   -0.023609   0.003907  
C    -1.337395   1.131508    -1.524037 
C    -1.263025   -0.211511   -1.992286 
C    -2.008729   -1.025288   -1.091842 
C    -2.677723   -0.150465   -0.159623 
C    -2.273388   1.16893     -0.424049 
C    -0.649164   2.315566    -2.133507 
C    -0.541404   -0.653616   -3.225864 
C    -2.212366   -2.509454   -1.152921 
C    -3.607314   -0.618775   0.91494   
C    -2.746676   2.409707    0.269966  
H    0.428709    -0.162901   -3.333354 
H    -0.377448   -1.732313   -3.240539 
H    -1.151222   -0.39716    -4.099064 
H    -1.467092   -2.995113   -1.786967 
H    -2.153573   -2.957749   -0.156338 
H    -3.19964    -2.745601   -1.563767 
H    -3.170344   -1.446624   1.480327  
H    -3.850622   0.182102    1.615953  
H    -4.542716   -0.972917   0.469068  
H    1.585715    -1.64172    1.15824   
C    0.155525    -1.700387   2.395475  
O    1.39444     -1.964974   2.069003  
H    -0.390055   3.060078    -1.374528 
H    0.274685    2.017328    -2.636552 
H    -1.292909   2.801755    -2.873909 
H    -2.951006   2.237074    1.330423  
C    0.348567    2.492531    1.60676   
H    4.324663    0.897013    -0.474394 
H    -2.018955   3.220008    0.183352  
H    -3.677038   2.757567    -0.191245 
H    4.950449    -1.184949   -1.65781  
H    0.899235    -2.573253   -1.424998 
H    3.241677    -2.928689   -2.097594 
C    -0.245882   -2.227774   3.734721  
H    -0.11299    -3.312617   3.748345  
H    0.415725    -1.80822    4.497101  
H    -1.281089   -1.967366   3.945838  
H    1.713082    4.141349    2.238809  
H    -0.613984   2.686801    2.05729   
C    1.53921     3.226885    1.694196  
C    2.450831    2.51933     0.933715  
H    3.493403    2.702592    0.72255   
