55                                     
                                       
C    3.218318    1.703085    -0.398375 
C    2.035829    2.439354    -0.444493 
C    0.836173    1.764665    -0.259452 
C    0.737028    0.379626    -0.042279 
C    1.943697    -0.311391   0.035615  
C    3.168112    0.338269    -0.146642 
O    -1.291955   -0.45799    1.957917  
N    -1.491593   1.669953    0.037027  
N    -0.415528   2.43846     -0.2323   
Co   -1.103429   -0.270663   0.000534  
C    -1.712919   -0.578119   -1.961803 
C    -0.684359   -1.52       -1.676847 
C    -1.100349   -2.286391   -0.547974 
C    -2.460335   -1.916639   -0.243573 
C    -2.838641   -0.871159   -1.1039   
C    -1.674216   0.471791    -3.031072 
C    0.586493    -1.668676   -2.453246 
C    -0.350076   -3.392917   0.131347  
C    -3.279593   -2.537378   0.843005  
C    -4.177142   -0.200012   -1.16492  
H    0.993471    -0.702574   -2.761455 
H    1.361334    -2.193281   -1.891353 
H    0.377566    -2.251288   -3.357166 
H    0.706059    -3.396206   -0.147339 
H    -0.414144   -3.307297   1.220568  
H    -0.766469   -4.366342   -0.148059 
H    -2.700681   -2.638889   1.764838  
H    -4.172287   -1.948565   1.063406  
H    -3.60215    -3.538216   0.536879  
H    0.823802    0.542295    2.010182  
C    -0.685275   -0.078777   2.964911  
O    0.486266    0.503451    2.933517  
H    -2.242876   1.359856    -2.739231 
H    -0.647787   0.786176    -3.238595 
H    -2.102681   0.09114     -3.964013 
H    -4.637562   -0.109036   -0.176942 
C    -2.534502   2.49204     0.112961  
H    2.068552    3.510129    -0.617041 
H    -4.106514   0.795846    -1.6088   
H    -4.857145   -0.787145   -1.79102  
H    4.173665    2.194044    -0.544686 
H    1.950331    -1.382239   0.232262  
C    -1.238566   -0.258587   4.340688  
H    -0.547203   -0.868573   4.928004  
H    -1.308626   0.716836    4.829093  
H    -2.217499   -0.731189   4.292507  
H    -2.740075   4.70338     -0.11521  
H    -3.519287   2.102315    0.327234  
C    -2.127958   3.815399    -0.113541 
C    -0.765901   3.738293    -0.327256 
H    -0.034247   4.50598     -0.528918 
C    4.418529    -0.497248   -0.088792 
F    4.529873    -1.107904   1.098072  
F    4.380831    -1.461054   -1.021282 
F    5.518663    0.229715    -0.287932 
