54                                     
                                       
C    3.764562    1.290968    -0.475077 
C    2.673555    2.156052    -0.445914 
C    1.411018    1.60387     -0.262953 
C    1.161466    0.225508    -0.124424 
C    2.284827    -0.596755   -0.130563 
C    3.575438    -0.078449   -0.305995 
O    -0.84259    -0.441411   1.957826  
N    -0.901705   1.752872    0.113545  
N    0.246852    2.409745    -0.15238  
Co   -0.737618   -0.215459   -0.004317 
C    -1.445959   -0.410551   -1.94447  
C    -0.551105   -1.492776   -1.703838 
C    -1.031096   -2.206546   -0.568659 
C    -2.317861   -1.656256   -0.215086 
C    -2.576079   -0.560842   -1.056511 
C    -1.2977     0.635511    -3.007929 
C    0.655215    -1.813549   -2.528406 
C    -0.416133   -3.410368   0.079861  
C    -3.17939    -2.17474    0.892521  
C    -3.811188   0.287213    -1.073942 
H    1.201389    -0.91512    -2.825253 
H    1.349206    -2.475916   -2.008006 
H    0.327009    -2.325815   -3.439571 
H    0.641586    -3.513167   -0.173245 
H    -0.49988    -3.357531   1.169583  
H    -0.924454   -4.323897   -0.246184 
H    -2.600965   -2.313288   1.810079  
H    -4.008558   -1.498741   1.11057   
H    -3.600345   -3.145713   0.611128  
H    1.416227    0.17253     1.927765  
C    -0.125756   -0.236873   2.942394  
O    1.127953    0.13116     2.867669  
H    -1.723807   1.591584    -2.688958 
H    -0.24501    0.80368     -3.250716 
H    -1.809051   0.331018    -3.927052 
H    -4.242234   0.408953    -0.076237 
C    -1.839648   2.681087    0.276144  
H    2.817915    3.225961    -0.555155 
H    -3.61216    1.277482    -1.490582 
H    -4.572318   -0.183645   -1.705003 
H    4.766064    1.688224    -0.617376 
H    2.19862     -1.673861   0.000407  
C    -0.628761   -0.401173   4.339491  
H    -0.038647   -1.171411   4.843268  
H    -0.481247   0.533198    4.887007  
H    -1.681847   -0.674908   4.329404  
H    -1.797688   4.911466    0.179383  
H    -2.85529    2.393432    0.506579  
C    -1.291251   3.961882    0.108696  
C    0.044938    3.744806    -0.160796 
H    0.852849    4.43576     -0.348    
C    4.73268     -1.016127   -0.324953 
O    4.607601    -2.210116   -0.204405 
H    5.727947    -0.549626   -0.461691 
