65                                     
                                       
C    1.555603    2.954161    -0.112539 
C    0.190636    3.23167     -0.118891 
C    -0.692697   2.161979    -0.060986 
C    -0.28844    0.816152    -0.007618 
C    1.083095    0.58752     0.028529  
C    2.013994    1.638508    -0.031101 
O    -1.854973   -0.832846   1.884271  
N    -2.831123   1.215279    0.140306  
N    -2.101546   2.340643    -0.002214 
Co   -1.773232   -0.445529   -0.052496 
C    -0.947231   -1.347808   -1.801717 
C    -1.07109    -2.290493   -0.740023 
C    -2.475612   -2.438529   -0.445516 
C    -3.192842   -1.5299     -1.242432 
C    -2.566525   0.273644    -3.039209 
C    0.295635    -0.996795   -2.557414 
C    0.018501    -3.112726   -0.119292 
C    -3.027699   -3.383262   0.57465   
C    -4.680963   -1.360885   -1.294632 
H    0.354326    0.072119    -2.775603 
H    1.20278     -1.28034    -2.020659 
H    0.287825    -1.53731    -3.510417 
H    1.00734     -2.692699   -0.317521 
H    -0.108268   -3.182657   0.965469  
H    0.005466    -4.132158   -0.519212 
H    -2.475726   -3.313912   1.516058  
H    -4.081023   -3.183965   0.781849  
H    -2.943653   -4.41286    0.211157  
H    -3.403274   0.890638    -2.697925 
H    -0.088599   0.702602    2.036969  
C    -1.341076   -0.405614   2.922896  
O    -0.370073   0.470155    2.952103  
H    -1.710358   0.933947    -3.201496 
H    -2.842746   -0.161272   -4.005407 
H    -5.148579   -1.522237   -0.319156 
H    -4.959083   -0.36684    -1.65299  
H    -5.112056   -2.088927   -1.989888 
H    2.268436    3.772398    -0.161201 
H    1.483713    -0.421044   0.099642  
C    -1.788144   -0.862369   4.273772  
H    -0.936088   -1.286763   4.810701  
H    -2.136767   0.001981    4.845236  
H    -2.584395   -1.597621   4.176535  
C    -2.238768   -0.800094   -2.045801 
C    -4.098733   1.598769    0.268818  
C    -4.192137   2.996361    0.204129  
C    3.460051    1.350547    -0.028186 
H    4.132658    2.218915    -0.043019 
N    3.886915    0.152039    -0.00302  
C    5.276605    -0.090337   -0.050158 
C    5.767268    -1.169279   0.691182  
C    6.155044    0.670427    -0.830441 
C    7.127309    -1.452056   0.693696  
H    5.067133    -1.762737   1.270241  
C    7.512655    0.36929     -0.83896  
H    5.76869     1.46871     -1.457587 
C    8.00393     -0.683761   -0.070847 
H    7.50412     -2.280659   1.284628  
H    8.187818    0.954184    -1.45537  
H    9.063914    -0.915079   -0.080512 
C    -2.89259    3.432698    0.032994  
H    -0.158399   4.258445    -0.161887 
H    -4.878163   0.862861    0.403761  
H    -2.483055   4.427288    -0.057562 
H    -5.080746   3.603162    0.276648  
