57                                     
                                       
C    0.226663    4.375469    -0.384782 
C    -0.856641   3.507746    -0.497131 
C    -0.653025   2.140334    -0.320951 
C    0.627       1.595114    -0.064273 
C    1.682272    2.496978    0.083055  
C    1.487717    3.873669    -0.073448 
O    0.83757     -0.656217   1.922989  
N    -1.32918    -0.054959   0.155892  
C    -1.733637   1.151098    -0.26177  
Co   0.620134    -0.36925    -0.023208 
C    0.881885    -0.719407   -2.053064 
C    2.171775    -0.432554   -1.493166 
C    2.415125    -1.380206   -0.473414 
C    1.3363      -2.344203   -0.485339 
C    0.429174    -1.960078   -1.492431 
C    0.203475    0.043161    -3.150523 
C    3.104609    0.628849    -1.980965 
C    3.601279    -1.455285   0.4387    
C    1.272934    -3.535524   0.422077  
C    -0.806161   -2.674478   -1.948456 
H    2.576298    1.539262    -2.270828 
H    3.859255    0.890229    -1.236218 
H    3.630996    0.246505    -2.862753 
H    4.123438    -0.497437   0.500385  
H    3.297344    -1.741214   1.449806  
H    4.315346    -2.203672   0.078833  
H    1.296075    -3.231257   1.474191  
H    0.368563    -4.125857   0.254662  
H    2.130841    -4.193156   0.248948  
H    0.238099    1.613363    1.911521  
C    0.583729    0.04271     2.910604  
O    0.212687    1.293163    2.845664  
H    -0.88476    -0.048975   -3.078922 
H    0.448807    1.107399    -3.098889 
H    0.507956    -0.329402   -4.134572 
H    -1.025991   -3.549157   -1.333037 
H    -1.682673   -2.018473   -1.952928 
H    -0.657418   -3.023846   -2.975563 
H    0.081933    5.442728    -0.51519  
H    2.681209    2.135215    0.319396  
C    0.696872    -0.486892   4.304076  
H    1.527329    0.018737    4.805274  
H    -0.212489   -0.250955   4.86105   
H    0.873377    -1.560627   4.285995  
C    -3.531434   -0.127861   -0.137471 
H    -3.744068   1.980765    -0.782286 
H    -1.851817   3.894186    -0.699904 
N    -2.432751   -0.842329   0.203048  
N    -4.7716     -0.721179   -0.170968 
H    -4.989552   -1.354645   0.589299  
H    -5.531427   -0.078003   -0.351808 
C    -3.117916   1.161624    -0.464576 
C    -2.403715   -2.154271   0.813465  
H    -3.010139   -2.844641   0.221909  
H    -1.368082   -2.49709    0.822016  
H    -2.774882   -2.117128   1.84322   
H    2.325395    4.553538    0.047495  
