70                                     
                                       
C    2.075961    -3.653059   1.632822  
C    2.378728    -2.462615   0.978718  
C    1.342731    -1.668226   0.480718  
C    -0.017422   -2.04556    0.617303  
C    -0.281415   -3.231337   1.309698  
C    0.748813    -4.033184   1.810169  
O    -1.867032   0.12879     1.518406  
N    0.30906     0.354581    -0.274489 
C    1.515638    -0.323151   -0.074318 
Co   -1.297289   -0.773847   -0.154814 
C    -1.501366   -1.584339   -2.051336 
C    -2.362656   -2.321466   -1.169506 
C    -3.264712   -1.402803   -0.589368 
C    -3.054716   -0.108356   -1.204295 
C    -2.012916   -0.246628   -2.141793 
C    -0.385711   -2.152483   -2.875211 
C    -2.341639   -3.806227   -0.995428 
C    -4.316358   -1.683183   0.440088  
C    -3.85707    1.114743    -0.874695 
C    -1.484827   0.782391    -3.093293 
H    -1.324748   -4.203006   -0.964526 
H    -2.865359   -4.124304   -0.091412 
H    -2.856004   -4.260813   -1.849552 
H    -4.110256   -2.605992   0.987895  
H    -4.380895   -0.864876   1.163068  
H    -5.297874   -1.786891   -0.034489 
H    -3.815101   1.332376    0.198073  
H    -3.502891   2.00155     -1.405758 
H    -4.908078   0.963343    -1.141652 
H    -0.142343   -1.170846   2.447604  
C    -1.455345   0.17531     2.682425  
O    -0.465923   -0.545338   3.139967  
H    0.380677    -1.397257   -3.074576 
H    0.097074    -2.987146   -2.35993  
H    -0.755562   -2.516034   -3.840147 
H    -1.952366   1.757668    -2.945724 
C    0.600469    1.591472    -0.547821 
H    3.41181     -2.142301   0.888071  
H    -0.398375   0.897003    -3.015377 
H    -1.699525   0.462423    -4.118378 
H    2.877368    -4.270015   2.025522  
H    -1.310216   -3.544131   1.476076  
H    0.511531    -4.948114   2.343977  
C    -2.077185   1.073193    3.703795  
H    -2.600926   0.456073    4.439892  
H    -1.297329   1.622768    4.235456  
H    -2.779517   1.754838    3.227233  
O    1.918216    1.784722    -0.579509 
C    2.519466    0.573257    -0.296414 
C    3.97726     0.529771    -0.323313 
C    4.632874    -0.603478   -0.818619 
C    4.723176    1.629511    0.116235  
C    6.02202     -0.646755   -0.843649 
H    4.050349    -1.434867   -1.206223 
C    6.111221    1.582575    0.080558  
H    4.212887    2.512397    0.488334  
C    6.761884    0.44409     -0.392056 
H    6.526846    -1.525218   -1.231547 
H    6.68748     2.434626    0.425373  
H    7.846112    0.410972    -0.416701 
C    -0.335889   2.723092    -0.754562 
H    -0.164071   3.178773    -1.735186 
H    -1.347668   2.311568    -0.756595 
C    -0.235219   3.788279    0.338105  
H    0.691074    4.365445    0.273157  
H    -0.256205   3.335554    1.337106  
C    -1.422273   4.723371    0.235291  
O    -2.398513   4.513085    -0.440546 
O    -1.264946   5.804753    1.005059  
H    -2.060055   6.358905    0.903852  
