67                                     
                                       
C    3.701696    0.512967    -0.1261   
C    2.706259    1.476942    -0.226091 
C    1.365912    1.079431    -0.228211 
C    0.942632    -0.254733   -0.136207 
C    1.965639    -1.202861   -0.051249 
C    3.323528    -0.8517     -0.058201 
O    -1.212581   -0.114827   1.846634  
N    -0.958517   1.584002    -0.342119 
C    0.261127    2.012867    -0.278799 
Co   -1.021794   -0.416371   -0.09459  
C    -1.01072    -1.788196   -1.697169 
C    -1.202977   -2.481488   -0.449485 
C    -2.434336   -2.030564   0.099622  
C    -2.987188   -1.04119    -0.750735 
C    -2.101169   -0.898365   -1.871406 
C    0.075568    -2.00882    -2.704171 
C    -0.389049   -3.616622   0.10435   
C    -3.034647   -2.487469   1.39228   
C    -4.34505    -0.431183   -0.5488   
C    -2.277392   -0.017111   -3.071473 
H    0.44352     -3.868814   -0.555098 
H    0.019027    -3.400398   1.097911  
H    -1.013129   -4.511311   0.194009  
H    -2.287381   -2.958894   2.036612  
H    -3.487838   -1.655025   1.937946  
H    -3.818235   -3.228266   1.197345  
H    -4.386428   0.236775    0.317961  
H    -4.666536   0.131014    -1.427622 
H    -5.083352   -1.222491   -0.383939 
H    1.051124    -0.77268    1.898246  
C    -0.526811   -0.318476   2.853227  
O    0.717854    -0.717683   2.825899  
H    0.395487    -1.065673   -3.155586 
H    0.955185    -2.478169   -2.260787 
H    -0.292217   -2.659877   -3.505116 
H    -0.911503   4.362027    -1.348409 
H    -3.204927   0.554999    -3.016828 
C    -1.854013   2.753799    -0.159284 
H    2.95008     2.53238     -0.275191 
H    -1.44908    0.691259    -3.174759 
H    -2.310663   -0.626638   -3.980189 
C    -0.857422   3.925423    -0.346696 
H    1.770111    -2.268784   0.016801  
C    -1.080627   -0.13811    4.229874  
H    -1.152131   -1.11854    4.710566  
H    -0.396965   0.469945    4.825983  
H    -2.065917   0.32167     4.178188  
H    -0.955189   4.709018    0.406055  
O    0.446617    3.324896    -0.201488 
C    -2.956253   2.818318    -1.206085 
H    -3.654927   1.988988    -1.085368 
H    -3.519754   3.750287    -1.094002 
H    -2.536865   2.787174    -2.215158 
C    -2.431815   2.728531    1.256464  
H    -3.078735   3.596741    1.416358  
H    -3.020011   1.820087    1.414805  
H    -1.628771   2.747582    2.000768  
O    4.193296    -1.869751   0.064704  
C    5.447917    -1.846011   -0.622971 
H    6.204978    -1.326934   -0.036348 
H    5.72229     -2.892862   -0.752568 
H    5.345356    -1.366419   -1.599978 
O    5.024948    0.781437    -0.055767 
C    5.425799    2.138785    -0.11659  
H    6.512551    2.132468    -0.050999 
H    5.117041    2.598152    -1.062282 
H    5.011102    2.707627    0.723031  
