60                                     
                                       
C    0.355327    4.019682    -1.093644 
C    -0.86511    3.651985    -0.544361 
C    -1.100997   2.29548     -0.311621 
C    -0.174898   1.274489    -0.600671 
C    1.043553    1.684395    -1.141928 
C    1.304066    3.035156    -1.382278 
H    -4.503526   1.958082    2.387608  
H    -1.617857   4.391903    -0.286924 
C    -2.294474   1.771914    0.323629  
Co   -0.795889   -0.489911   -0.037124 
C    -0.018199   -2.503131   -0.09882  
C    -1.443192   -2.525298   -0.089726 
C    -1.888452   -1.856968   -1.273836 
C    -0.751434   -1.374671   -1.968427 
C    0.419757    -1.782211   -1.237274 
C    0.85487     -3.107      0.956291  
C    -2.279223   -3.180098   0.970135  
C    -3.30865    -1.646263   -1.710592 
C    -0.768319   -0.633779   -3.271393 
C    1.845068    -1.605681   -1.667557 
H    2.295186    -2.57889    -1.893035 
H    1.881562    -2.749187   0.864979  
H    0.497463    -2.843548   1.95711   
H    0.848148    -4.199713   0.8726    
H    -1.924621   -2.90918    1.970179  
H    -3.329149   -2.883084   0.898624  
H    -2.239851   -4.272163   0.888476  
H    -4.013941   -2.056797   -0.983627 
H    -3.53742    -0.58367    -1.842841 
C    1.032169    -0.00185    2.01943   
O    1.948465    -0.208471   1.210623  
H    3.242421    0.643836    0.479428  
O    3.958669    0.978406    -0.110699 
O    -0.213915   -0.177118   1.765608  
C    -3.583327   0.24191     1.309259  
C    -4.251573   1.632697    1.378627  
H    -3.492096   -2.149499   -2.665632 
H    0.576947    5.06478     -1.284186 
H    1.827507    0.965279    -1.354874 
H    2.272201    3.320042    -1.784642 
C    1.340151    0.515507    3.410336  
H    2.346107    0.21941     3.710421  
H    1.293037    1.609088    3.387318  
H    0.602832    0.158969    4.13078   
N    -2.432893   0.496074    0.451732  
H    -1.717099   -0.107945   -3.411158 
H    0.029696    0.111675    -3.315559 
H    -0.639138   -1.326016   -4.111218 
H    -3.236038   -0.115342   2.285357  
H    1.911901    -0.995587   -2.571585 
H    2.436388    -1.122793   -0.885365 
O    -3.248945   2.534968    0.858154  
H    -4.244569   -0.513326   0.876012  
H    -5.131804   1.708557    0.735177  
C    5.076698    0.25031     0.029562  
O    6.068577    0.505221    -0.602896 
C    4.980431    -0.903858   1.009707  
H    4.573887    -0.569225   1.967428  
H    4.293059    -1.662152   0.620511  
H    5.969753    -1.338781   1.143457  
