62                                     
                                       
C    -1.567473   3.529217    0.527914  
C    -0.273675   3.651969    0.050081  
C    0.501981    2.50858     -0.161655 
C    0.030726    1.221752    0.113926  
C    -1.291791   1.14861     0.57032   
C    -2.10538    2.264912    0.781371  
C    1.285846    -2.403567   0.584284  
H    0.135342    4.637284    -0.168585 
N    1.802965    2.743534    -0.704718 
Co   1.136232    -0.352633   -0.107365 
C    -0.831862   -1.949162   2.029133  
C    0.749629    -3.571096   -0.185764 
C    3.685721    -2.2898     -0.438245 
C    3.836478    0.179625    1.51911   
H    -1.271803   -1.09986    2.55967   
H    -1.500321   -2.22536    1.210777  
H    -0.771334   -2.784749   2.73606   
H    -0.336765   -3.50473    -0.273016 
H    1.164359    -3.6016     -1.197001 
H    1.00467     -4.510636   0.317023  
H    3.358662    -3.108211   -1.083389 
H    4.019621    -1.469143   -1.082535 
H    4.547674    -2.641602   0.138945  
H    4.475599    0.137063    0.632451  
H    3.540854    1.222443    1.675949  
H    4.438519    -0.127853   2.381148  
H    1.671042    1.317776    2.973677  
H    0.004361    0.745133    2.966535  
H    1.191598    0.001668    4.057312  
C    -0.887312   -1.18233    -1.905919 
O    -1.640731   -1.49588    -0.96212  
H    -3.081721   -0.632661   -1.051041 
O    -3.882343   -0.047032   -1.063873 
O    0.326982    -0.813683   -1.777247 
C    0.532507    -1.613933   1.5082    
H    -2.169622   4.418825    0.691633  
H    -1.722349   0.167651    0.753477  
C    -1.429986   -1.211893   -3.320348 
H    -1.946804   -2.158582   -3.49308  
H    -2.170599   -0.411073   -3.419105 
H    -0.639191   -1.067773   -4.05559  
C    1.398445    -0.586616   2.010625  
C    2.643159    -0.712669   1.352561  
H    2.055058    3.715458    -0.825577 
C    2.641985    1.843054    -1.214557 
O    2.456582    0.611494    -1.163876 
C    3.890573    2.348745    -1.886321 
H    3.957327    3.437857    -1.905973 
H    4.760091    1.941858    -1.363903 
H    3.908049    1.965882    -2.909316 
C    2.578082    -1.844028   0.467983  
C    1.04528     0.424963    3.057141  
C    -3.531523   2.111761    1.239191  
H    -4.217441   2.086283    0.386176  
H    -3.672688   1.174669    1.787362  
H    -3.829556   2.936142    1.894159  
C    -4.825511   -0.517292   -0.241873 
O    -5.873091   0.061157    -0.093632 
C    -4.452077   -1.776907   0.516299  
H    -3.948918   -2.498722   -0.131906 
H    -3.747825   -1.509797   1.313031  
H    -5.347047   -2.209101   0.96176   
