62                                     
                                       
C    1.017379    3.597914    0.486492  
C    -0.258436   3.497714    1.013354  
C    -0.951889   2.284543    0.93125   
C    -0.421851   1.143983    0.319898  
C    0.890625    1.266921    -0.151431 
C    1.593159    2.467021    -0.087008 
C    -1.525634   -2.134198   -1.339781 
H    -0.719361   4.361707    1.487633  
N    -2.244201   2.277064    1.534306  
Co   -1.466274   -0.462214   0.044536  
C    0.443081    -0.982358   -2.607134 
C    -0.886092   -3.465257   -1.087561 
C    -3.832078   -2.623826   -0.225119 
C    -4.318668   0.362433    -1.157501 
H    0.801578    0.039888    -2.755719 
H    1.183719    -1.515594   -2.007998 
H    0.379803    -1.456811   -3.592945 
H    0.185252    -3.431063   -1.286894 
H    -1.021571   -3.774859   -0.046443 
H    -1.341309   -4.227447   -1.729051 
H    -3.374069   -3.561544   0.097871  
H    -4.209675   -2.114045   0.667833  
H    -4.687776   -2.869263   -0.863411 
H    -4.891838   -0.057098   -0.325802 
H    -4.112599   1.415177    -0.935394 
H    -4.95243    0.331301    -2.05032  
H    -2.345639   2.148814    -2.174521 
H    -0.648987   1.761938    -2.467402 
H    -1.871014   1.361547    -3.687235 
C    0.625919    -1.855859   1.323011  
O    1.317646    -1.761942   0.293022  
H    2.795281    -2.592769   0.299658  
O    3.647235    -3.089443   0.402039  
O    -0.576819   -1.428504   1.423912  
C    -0.900534   -1.001218   -1.942268 
H    1.560086    4.536107    0.523177  
H    1.376754    0.396263    -0.580329 
C    1.195283    -2.477067   2.582     
H    0.424655    -3.04134    3.109189  
H    2.051282    -3.112002   2.350137  
H    1.52619     -1.668374   3.24224   
C    -1.873841   0.056261    -1.991012 
C    -3.055233   -0.414576   -1.375048 
H    -2.548743   3.157743    1.927483  
C    -3.004755   1.209875    1.808712  
O    -2.754099   0.057849    1.414879  
C    -4.241094   1.432023    2.637512  
H    -4.353095   2.462937    2.977266  
H    -5.114829   1.148409    2.045242  
H    -4.195737   0.767192    3.503     
C    -2.839315   -1.770679   -0.955826 
C    -1.672207   1.405317    -2.610662 
C    2.997041    2.534565    -0.611622 
F    3.188148    1.683027    -1.632476 
F    3.303606    3.765498    -1.051558 
F    3.901713    2.22426     0.331088  
C    4.672662    -2.240278   0.55899   
O    5.79417     -2.641354   0.737507  
C    4.311755    -0.76915    0.478357  
H    3.931637    -0.529358   -0.520085 
H    3.517058    -0.521498   1.188904  
H    5.196251    -0.168138   0.68132   
