65                                     
                                       
C    -1.405225   3.426693    0.555144  
C    -0.095798   3.52364     0.10232   
C    0.6157      2.330326    -0.121466 
C    0.070244    1.064743    0.110689  
C    -1.261664   1.037713    0.540326  
C    -2.016493   2.189621    0.765116  
C    1.154649    -2.612414   0.591924  
C    0.523913    4.877735    -0.148471 
N    1.942029    2.487827    -0.634433 
Co   1.092926    -0.562299   -0.119071 
C    -0.927804   -2.039212   2.049628  
C    0.562643    -3.763383   -0.162341 
C    3.546282    -2.621442   -0.453992 
C    3.830737    -0.14095    1.478037  
H    -1.330767   -1.152982   2.548423  
H    -1.60999    -2.316599   1.243233  
H    -0.899472   -2.850065   2.786754  
H    -0.523834   -3.670591   -0.212603 
H    0.941075    -3.798975   -1.187758 
H    0.813015    -4.710934   0.327501  
H    3.173834    -3.430081   -1.086834 
H    3.911386    -1.824369   -1.110981 
H    4.397038    -3.007798   0.117732  
H    4.473061    -0.244385   0.598633  
H    3.58556     0.919968    1.598174  
H    4.411495    -0.448307   2.354543  
H    1.744387    1.104879    2.945022  
H    0.047745    0.626122    2.943968  
H    1.193361    -0.173206   4.040204  
C    -0.98261    -1.328074   -1.896108 
O    -1.739399   -1.622947   -0.948693 
H    -3.155433   -0.720883   -1.049558 
O    -3.931157   -0.102506   -1.071028 
O    0.243024    -0.996916   -1.775532 
C    0.446961    -1.778954   1.513743  
H    -1.74184    0.074542    0.688966  
C    -1.535981   -1.331091   -3.306794 
H    -2.109971   -2.245289   -3.473039 
H    -2.227161   -0.486843   -3.403391 
H    -0.742827   -1.235355   -4.047429 
C    1.364629    -0.788591   1.998009  
C    2.596033    -0.978913   1.330203  
H    2.279198    3.43767     -0.703661 
C    2.715303    1.551472    -1.184534 
O    2.440422    0.335928    -1.196309 
C    4.003931    1.996014    -1.823952 
H    4.136637    3.079327    -1.816351 
H    4.838633    1.525382    -1.297897 
H    4.015986    1.636465    -2.855328 
C    2.470346    -2.114793   0.458523  
C    1.069416    0.249317    3.036674  
H    -1.968517   4.34041     0.733236  
H    1.415716    5.050598    0.46875   
H    0.809225    5.012168    -1.199818 
H    -0.187661   5.669671    0.093285  
C    -3.458225   2.10458     1.190696  
H    -4.123963   2.089314    0.321583  
H    -3.651221   1.185012    1.752651  
H    -3.738127   2.953184    1.822141  
C    -4.879442   -0.502793   -0.218447 
O    -5.898689   0.125061    -0.074158 
C    -4.547015   -1.750834   0.577036  
H    -4.090493   -2.517117   -0.054579 
H    -3.815046   -1.488567   1.349996  
H    -5.451015   -2.126511   1.054361  
