68                                     
                                       
C    0.456527    3.95712     -1.160779 
C    -0.825035   3.533631    -0.842289 
C    -1.053925   2.193951    -0.509913 
C    -0.038927   1.233308    -0.507544 
C    1.242191    1.705769    -0.821562 
C    1.501665    3.036698    -1.138189 
C    0.572132    -2.565994   -0.328081 
H    -1.650366   4.243997    -0.835457 
N    -2.397599   1.875503    -0.144456 
Co   -0.358089   -0.619756   -0.068674 
C    2.461757    -1.362898   -1.662708 
C    1.434131    -3.219865   0.708283  
C    -1.745316   -3.471322   0.45598   
C    -2.673523   -1.693446   -1.98892  
H    2.539811    -0.573695   -2.414458 
H    3.015319    -1.040762   -0.778264 
H    2.943574    -2.258132   -2.072021 
H    2.414179    -2.741848   0.749823  
H    0.983928    -3.138648   1.702382  
H    1.566282    -4.283055   0.479361  
H    -1.185476   -3.943104   1.267033  
H    -2.506875   -2.825261   0.907472  
H    -2.258136   -4.261919   -0.102474 
H    -3.365176   -1.888275   -1.163696 
H    -2.857263   -0.676633   -2.352692 
H    -2.916358   -2.386749   -2.801652 
H    -1.055833   0.114037    -3.469535 
H    0.65592     0.434474    -3.195848 
H    0.162627    -0.941321   -4.202375 
C    1.45868     -0.156496   2.056054  
O    2.428657    -0.270275   1.288127  
H    3.612775    0.815279    0.728486  
O    4.276704    1.312816    0.192401  
O    0.241869    -0.379007   1.7328    
C    1.02883     -1.656209   -1.330338 
H    2.07815     1.016201    -0.806529 
C    1.677192    0.296235    3.486364  
H    2.646652    -0.051764   3.84652   
H    1.679754    1.391106    3.500878  
H    0.875082    -0.055118   4.135855  
C    -0.111597   -1.253639   -2.103327 
C    -1.253905   -1.868129   -1.540273 
H    -3.058475   2.637752    -0.22195  
C    -2.844284   0.7634      0.445581  
O    -2.137101   -0.245599   0.625634  
C    -0.832592   -2.684502   -0.435654 
C    -0.084739   -0.361293   -3.306137 
H    0.635619    4.997785    -1.41151  
H    2.520439    3.342715    -1.35483  
C    -4.301853   0.764669    0.916187  
C    -4.492427   1.877725    1.960344  
C    -5.226708   1.001171    -0.289216 
C    -4.625961   -0.588452   1.551585  
H    -3.809175   1.743843    2.804337  
H    -4.326146   2.876407    1.542877  
H    -5.518235   1.846938    2.340407  
H    -5.068939   0.240417    -1.060551 
H    -6.269732   0.944735    0.0376    
H    -5.078451   1.985442    -0.746138 
H    -5.6559     -0.575636   1.920906  
H    -4.53138    -1.399741   0.824305  
H    -3.953565   -0.803847   2.385482  
C    5.48604     0.739681    0.280298  
O    6.432582    1.186966    -0.313942 
C    5.553235    -0.492881   1.162693  
H    5.153768    -0.275288   2.157016  
H    4.933631    -1.29049    0.741019  
H    6.588344    -0.823557   1.23281   
