68                                     
                                       
C    -1.668234   4.214933    -0.508222 
C    -0.302903   3.970769    -0.448637 
C    0.160168    2.666747    -0.255005 
C    -0.700471   1.575516    -0.103941 
C    -2.067922   1.85983     -0.192509 
C    -2.55668    3.150142    -0.388156 
C    -0.650028   -1.953887   1.349947  
H    0.405079    4.790435    -0.561234 
N    1.582373    2.5104      -0.200635 
Co   -0.01096    -0.19406    0.244546  
C    -2.731792   -0.543716   2.044315  
C    -1.360891   -3.129537   0.752461  
C    1.790488    -2.783393   0.961057  
C    2.393012    -0.015695   2.368491  
H    -2.943709   0.505522    2.264156  
H    -3.281241   -0.809742   1.138468  
H    -3.112774   -1.143965   2.878561  
H    -2.428612   -2.932234   0.652684  
H    -0.973757   -3.358292   -0.245548 
H    -1.217136   -4.013611   1.383244  
H    1.348337    -3.51165    0.276148  
H    2.597994    -2.270552   0.426942  
H    2.238096    -3.334706   1.795689  
H    3.125118    -0.395644   1.648314  
H    2.411821    1.07854     2.329312  
H    2.722506    -0.315917   3.369226  
H    0.477042    2.045482    2.904299  
H    -1.259487   1.940841    2.625609  
H    -0.557955   1.258001    4.107143  
C    -1.708567   -1.086344   -1.84433  
O    -2.691075   -1.095877   -1.082076 
H    -4.160774   -0.269552   -1.122721 
O    -4.970981   0.252964    -0.903044 
O    -0.504355   -0.869362   -1.476286 
C    -1.261316   -0.773463   1.865222  
H    -2.782464   1.050101    -0.100793 
C    -1.900941   -1.322034   -3.329072 
H    -2.760089   -1.972386   -3.500266 
H    -2.10134    -0.355664   -3.803334 
H    -1.000884   -1.743064   -3.777922 
C    -0.209936   0.083661    2.348297  
C    1.023736    -0.554487   2.08009   
H    2.110393    3.372837    -0.187702 
C    2.248223    1.371472    -0.491239 
O    1.696549    0.259063    -0.5861   
C    0.756531    -1.811007   1.442805  
C    -0.399397   1.403424    3.032736  
H    -3.628879   3.310448    -0.446659 
H    -2.02929    5.227569    -0.657409 
N    3.596345    1.491067    -0.675161 
C    4.51758     0.41753     -0.76988  
C    4.202846    -0.781519   -1.414591 
C    5.790012    0.607708    -0.226472 
C    5.164829    -1.785676   -1.482974 
H    3.222556    -0.921725   -1.851053 
C    6.746171    -0.396425   -0.321023 
H    6.026554    1.541651    0.277507  
C    6.434882    -1.602215   -0.943286 
H    4.914654    -2.718327   -1.97876  
H    7.732354    -0.236078   0.102636  
H    7.177304    -2.390376   -1.010448 
H    4.006833    2.4052      -0.543922 
C    -5.974262   -0.556029   -0.535495 
O    -7.052581   -0.116146   -0.230123 
C    -5.637968   -2.036302   -0.514846 
H    -5.123155   -2.336516   -1.430941 
H    -4.957494   -2.245268   0.317426  
H    -6.556175   -2.607166   -0.384239 
