66                                     
                                       
C    0.467207    -3.840917   1.307255  
C    -0.722568   -3.247388   0.91475   
C    -0.739468   -1.873749   0.640531  
C    0.408019    -1.068684   0.754163  
C    1.590969    -1.69589    1.14882   
C    1.623025    -3.062211   1.418106  
C    1.153613    2.595481    0.001461  
H    -1.61075    -3.868748   0.811774  
C    -1.910655   -1.109151   0.180012  
Co   0.074866    0.741545    0.171409  
C    1.967023    2.983626    -1.194018 
C    -1.138318   3.565088    -0.781726 
C    -2.008277   2.35426     2.002143  
H    3.132866    0.874089    2.295124  
H    3.430933    0.835897    0.550385  
H    3.676885    2.335816    1.470545  
H    2.910847    2.436194    -1.215345 
H    1.430709    2.759676    -2.121511 
H    2.178263    4.058472    -1.175772 
H    -0.783007   3.457627    -1.810232 
H    -2.155217   3.1632      -0.736819 
H    -1.192469   4.63588     -0.554436 
H    -2.74529    2.04699     1.254148  
H    -2.115957   1.695347    2.866717  
H    -2.252485   3.372519    2.323437  
H    -0.400116   0.637878    3.672827  
H    1.248968    0.130916    3.321596  
H    0.954525    1.685044    4.122729  
C    0.58243     0.996445    3.356078  
C    1.520271    -0.16944    -2.043276 
O    2.558709    -0.101581   -1.366984 
H    3.725519    -1.181034   -0.752617 
O    4.420325    -1.646185   -0.22752  
O    0.370026    0.234939    -1.649404 
H    0.501855    -4.905473   1.514438  
H    2.516227    -1.133101   1.219091  
H    2.564691    -3.525533   1.698275  
C    1.552663    -0.783817   -3.428281 
H    2.519506    -0.598145   -3.89871  
H    1.424732    -1.866351   -3.325382 
H    0.741695    -0.398941   -4.047036 
C    1.620862    1.849705    1.116716  
C    -0.617646   2.307361    1.444973  
C    0.51324     1.679877    2.023459  
C    -0.234295   2.849076    0.175778  
C    3.043552    1.447523    1.369191  
O    -1.764102   0.11304     -0.064847 
N    -3.108026   -1.707203   0.03624   
C    -4.340612   -1.130106   -0.352719 
C    -5.50226    -1.82412    -0.003902 
C    -4.428253   0.058739    -1.082392 
C    -6.747472   -1.332695   -0.372848 
H    -5.427211   -2.748257   0.564179  
C    -5.684521   0.541041    -1.438601 
H    -3.529738   0.586641    -1.369544 
C    -6.845166   -0.142719   -1.089316 
H    -7.641719   -1.881161   -0.094941 
H    -5.749561   1.46409     -2.006068 
H    -7.816983   0.245084    -1.375803 
H    -3.154713   -2.675902   0.321482  
C    5.642637    -1.190311   -0.54091  
O    6.626865    -1.629588   -0.004993 
C    5.674347    -0.092915   -1.587985 
H    5.11793     -0.393588   -2.47966  
H    5.186686    0.806761    -1.199168 
H    6.710501    0.127179    -1.840222 
