66                                     
                                       
C    0.780302    4.045379    -0.843632 
C    -0.513198   3.596502    -0.625853 
C    -0.753649   2.231758    -0.429582 
C    0.262765    1.271879    -0.46585  
C    1.554502    1.770237    -0.681418 
C    1.824964    3.124039    -0.862211 
C    0.905169    -2.531781   -0.481679 
H    -1.340167   4.304135    -0.593285 
N    -2.113998   1.885127    -0.172579 
Co   -0.056099   -0.611776   -0.167582 
C    2.860408    -1.243209   -1.62649  
C    1.71189     -3.237823   0.56461   
C    -1.448611   -3.494421   0.10394   
C    -2.246819   -1.587591   -2.278453 
H    2.978679    -0.418195   -2.333202 
H    3.353339    -0.960813   -0.693784 
H    3.37608     -2.114296   -2.04653  
H    2.666581    -2.731993   0.718893  
H    1.18583     -3.252708   1.523923  
H    1.902957    -4.274002   0.264428  
H    -0.956111   -3.944197   0.969459  
H    -2.288103   -2.89262    0.469505  
H    -1.856529   -4.304715   -0.510169 
H    -2.98273    -1.761832   -1.48801  
H    -2.398828   -0.573295   -2.661241 
H    -2.456911   -2.286347   -3.09566  
H    -0.552532   0.316774    -3.559721 
H    1.134534    0.631524    -3.156908 
H    0.721358    -0.685437   -4.271986 
C    1.628001    -0.254796   2.085069  
O    2.643147    -0.303043   1.370442  
H    3.840104    0.822277    0.927633  
O    4.526643    1.349751    0.452181  
O    0.436849    -0.47682    1.677132  
C    1.412231    -1.562252   -1.4004   
H    0.968444    5.104563    -0.987034 
H    2.390781    1.08108     -0.692213 
H    2.851786    3.446478    -1.004103 
C    1.753721    0.109253    3.551387  
H    2.706926    -0.246134   3.946082  
H    1.734595    1.200852    3.634635  
H    0.921708    -0.294583   4.128701  
C    0.316214    -1.123347   -2.21719  
C    -0.852371   -1.776638   -1.761234 
H    -2.767756   2.657271    -0.166297 
C    -2.585401   0.712362    0.256896  
O    -1.878214   -0.300151   0.432508  
C    -0.489244   -2.652259   -0.681075 
C    0.410576    -0.161029   -3.361345 
C    -4.04378    0.621352    0.547919  
C    -4.460885   -0.314415   1.497517  
C    -4.986722   1.411897    -0.114187 
C    -5.811082   -0.435749   1.803152  
H    -3.714107   -0.928135   1.990638  
C    -6.337863   1.280039    0.188236  
H    -4.679818   2.102416    -0.895563 
C    -6.749744   0.361865    1.151141  
H    -6.132456   -1.154038   2.550304  
H    -7.069128   1.886781    -0.3356   
H    -7.804365   0.262293    1.387515  
C    5.733093    0.775012    0.565999  
O    6.704831    1.257351    0.044202  
C    5.763997    -0.506373   1.378055  
H    5.305052    -0.352089   2.35834   
H    5.179432    -1.282799   0.874508  
H    6.797204    -0.832209   1.487842  
