74                                     
                                       
C    -1.355245   -1.375403   3.146329  
C    -1.645131   -0.424747   2.175836  
C    -0.622423   0.037253    1.33678   
C    0.665097    -0.524306   1.396101  
C    0.930679    -1.480843   2.373591  
C    -0.06385    -1.888203   3.260382  
H    3.384587    -1.814768   -2.287165 
H    -2.67338    -0.112695   2.035869  
C    -0.777497   0.926826    0.149899  
Co   1.720421    -0.112918   -0.137278 
C    3.77889     -0.428449   0.2091    
C    3.345456    0.643422    1.038583  
C    2.810102    1.652851    0.190306  
C    3.040385    1.259486    -1.175986 
C    3.630404    -0.015523   -1.163974 
C    3.973443    -0.892336   -2.327705 
C    4.361638    -1.745161   0.626201  
C    3.417029    0.710663    2.532859  
C    2.158279    2.934828    0.613636  
C    2.603491    2.065898    -2.360484 
H    1.525758    2.25704     -2.317094 
H    3.11807     3.032504    -2.382456 
H    1.350823    3.199208    -0.077728 
H    1.722828    2.844835    1.613611  
H    2.873709    3.764772    0.631583  
H    2.534497    1.196067    2.956995  
H    3.48936     -0.28299    2.980064  
H    4.301924    1.281812    2.835672  
H    3.832992    -2.568783   0.134649  
C    0.236913    -2.362938   -1.129229 
O    -0.847287   -1.771809   -1.029618 
H    -2.248154   -2.480757   -1.096618 
O    0.137508    0.821851    -0.720956 
O    1.384743    -1.841729   -0.891791 
H    -2.146179   -1.737914   3.795104  
H    1.912248    -1.949093   2.422712  
H    0.154812    -2.639234   4.014956  
C    0.28721     -3.821628   -1.547555 
H    0.658564    -4.417631   -0.709063 
H    -0.70104    -4.179337   -1.838951 
H    0.990113    -3.944184   -2.375137 
H    5.421406    -1.811315   0.355037  
H    5.035225    -1.160621   -2.306235 
H    2.814803    1.548061    -3.298377 
H    4.287171    -1.892609   1.706812  
N    -1.785188   1.792003    -0.070623 
C    -2.613662   2.306847    1.038679  
C    -4.096006   1.962641    0.911456  
C    -2.388261   3.802197    1.310579  
H    -2.223059   1.807046    1.921678  
H    -4.242419   0.893619    0.739235  
H    -4.608071   2.253905    1.834854  
H    -4.567812   2.512377    0.091442  
H    -1.326509   4.056051    1.233895  
H    -2.956532   4.451342    0.643331  
H    -2.715609   4.017676    2.332609  
C    -2.005051   2.162266    -1.495352 
C    -2.57161    3.55726     -1.734329 
C    -2.842684   1.070964    -2.165683 
H    -1.012668   2.147783    -1.946135 
H    -1.930651   4.337323    -1.316795 
H    -2.618237   3.707742    -2.817071 
H    -3.585397   3.683086    -1.346623 
H    -2.365599   0.096409    -2.026818 
H    -3.846965   1.021512    -1.734798 
H    -2.928673   1.277373    -3.237761 
C    -4.037874   -2.205988   -0.482335 
O    -3.788077   -1.135233   0.037449  
O    -3.152011   -2.939859   -1.131207 
H    3.768206    -0.397709   -3.27952  
C    -5.405536   -2.8471     -0.461677 
H    -5.343375   -3.825458   0.021818  
H    -6.10711    -2.20811    0.072741  
H    -5.748821   -3.010017   -1.486547 
