63                                     
                                       
C    -1.546192   3.274383    1.456148  
C    -1.885671   2.347707    0.480489  
C    -0.913195   1.443232    0.034035  
C    0.387215    1.424723    0.579276  
C    0.683229    2.343103    1.585293  
C    -0.265109   3.272199    2.007329  
H    2.555824    -2.674269   1.561382  
H    -2.900344   2.304818    0.109125  
C    -1.062243   0.373116    -0.975932 
Co   1.410474    -0.086564   -0.024483 
C    3.382046    -0.098432   0.718735  
C    3.276361    0.964283    -0.222153 
C    2.865806    0.403615    -1.46169  
C    2.846565    -1.02972    -1.323636 
C    3.164431    -1.336516   0.010784  
C    3.1908      -2.679822   0.670369  
C    3.714242    -0.018918   2.178487  
C    3.539344    2.420969    0.01213   
C    2.567132    1.149558    -2.726336 
C    2.439182    -1.967794   -2.418839 
H    1.433064    -1.724673   -2.776809 
H    3.129416    -1.895459   -3.266214 
H    1.70766     0.707431    -3.239464 
H    2.331028    2.196945    -2.518484 
H    3.421145    1.125872    -3.41307  
H    2.696546    3.043602    -0.300172 
H    3.736202    2.630559    1.065557  
H    4.422617    2.729262    -0.557996 
H    2.953731    -0.540266   2.769362  
C    -0.407741   -1.816222   1.404416  
O    -0.99335    -2.192532   0.37238   
H    -2.606122   -2.206348   0.37969   
O    -0.021037   -0.265736   -1.300309 
O    0.643818    -1.084114   1.428701  
H    2.826671    -3.463623   0.002843  
H    -2.289829   3.98252     1.807313  
H    1.660473    2.331366    2.062307  
H    -0.012702   3.987124    2.78611   
C    -0.947893   -2.204167   2.764398  
H    -1.487809   -3.150622   2.700473  
H    -0.146112   -2.264705   3.501449  
H    -1.649921   -1.419882   3.064254  
H    4.685993    -0.479556   2.388352  
H    4.210856    -2.936896   0.976641  
H    2.430668    -3.004118   -2.075284 
H    3.754304    1.01658     2.526109  
N    -2.192821   0.005578    -1.587247 
C    -2.303335   -1.192692   -2.40091  
H    -2.12789    -0.977678   -3.460346 
H    -1.564211   -1.904864   -2.033024 
H    -3.306611   -1.590416   -2.245662 
O    -3.356302   0.710098    -1.387972 
C    -3.528451   1.68031     -2.419894 
H    -4.474016   2.175787    -2.195379 
H    -2.708633   2.406179    -2.401081 
H    -3.585104   1.198294    -3.401266 
C    -3.931635   -0.927854   0.869043  
O    -3.150265   -0.235191   1.486479  
O    -3.598765   -2.064634   0.264476  
C    -5.394323   -0.601166   0.696286  
H    -5.61875    -0.519315   -0.370118 
H    -6.006032   -1.408794   1.106841  
H    -5.621339   0.336861    1.201298  
