69                                     
                                       
C    -0.128366   -3.090527   2.009188  
C    -1.215923   -2.477072   1.405207  
C    -1.029319   -1.256727   0.736463  
C    0.207874    -0.58836    0.75464   
C    1.296864    -1.251875   1.324095  
C    1.133476    -2.493687   1.932423  
H    3.143699    2.290352    -1.560079 
H    -2.199359   -2.930666   1.490335  
C    -2.069074   -0.467372   0.037021  
Co   0.086475    1.169606    -0.021582 
C    1.788966    2.167477    0.800633  
C    0.671705    2.258403    1.704835  
C    -0.364921   2.962783    1.041514  
C    0.079351    3.286367    -0.278059 
C    1.418821    2.81925     -0.404375 
C    2.271028    2.941414    -1.629704 
C    3.146277    1.613921    1.117239  
C    0.648356    1.743824    3.112649  
C    -1.729578   3.257794    1.58482   
C    -0.716858   3.995981    -1.331675 
H    -1.764628   3.680676    -1.316893 
H    -0.690996   5.082424    -1.189437 
H    -2.486626   3.19437     0.798822  
H    -2.008098   2.552134    2.371408  
H    -1.762269   4.267686    2.008465  
H    -0.375129   1.573698    3.457145  
H    1.183638    0.794334    3.195132  
H    1.118326    2.461835    3.794068  
H    3.456473    0.860687    0.388818  
C    1.353335    -0.169335   -2.091004 
O    2.380021    -0.154288   -1.39142  
H    3.369861    -1.44873    -1.349582 
O    3.85859     -2.325991   -1.328104 
O    0.261946    0.425046    -1.780517 
H    -0.260284   -4.031478   2.534157  
H    2.291681    -0.820582   1.277785  
H    1.998648    -2.988762   2.366171  
C    1.365055    -0.900691   -3.418739 
H    2.008414    -0.353847   -4.114721 
H    1.803066    -1.892606   -3.278699 
H    0.363162    -0.982083   -3.838915 
H    3.887263    2.421403    1.122308  
H    2.606206    3.976732    -1.757324 
H    -0.32229    3.778449    -2.32773  
H    3.161869    1.149499    2.106274  
C    -4.300999   -0.066609   -0.849875 
C    -3.499567   -2.367273   -0.72113  
C    -5.622115   -0.472799   -0.192666 
H    -4.375553   -0.139457   -1.944172 
H    -4.018765   0.954053    -0.597349 
C    -4.776639   -2.846716   -0.036828 
H    -3.636098   -2.414962   -1.811866 
H    -2.628616   -2.971877   -0.48173  
C    -5.947664   -1.947629   -0.447615 
H    -6.424349   0.169083    -0.571166 
H    -5.541118   -0.294279   0.886494  
H    -4.972662   -3.888049   -0.312187 
H    -4.637825   -2.810079   1.05122   
H    -6.858852   -2.234278   0.086337  
H    -6.14564    -2.092626   -1.518527 
N    -3.242362   -0.965809   -0.388972 
C    4.418405    -2.49599    -0.137175 
O    4.378401    -1.683446   0.762955  
O    -1.822066   0.758676    -0.141831 
C    5.114747    -3.832052   -0.030629 
H    4.382582    -4.634229   -0.157969 
H    5.851212    -3.930091   -0.832086 
H    5.599802    -3.917885   0.940605  
H    1.710415    2.655469    -2.525765 
