69                                     
                                       
C    -1.555489   3.208191    2.044226  
C    -0.222887   2.894179    1.8238    
C    0.111184    1.685769    1.202414  
C    -0.845038   0.749824    0.796847  
C    -2.179658   1.116502    1.019379  
C    -2.543221   2.316762    1.630111  
C    -1.14933    -2.95806    -0.190465 
H    0.562174    3.587971    2.121493  
N    1.5056      1.478251    0.979877  
Co   -0.348495   -0.955311   0.029389  
C    -3.250157   -2.126796   1.117005  
C    -1.844987   -3.443891   -1.425119 
C    1.300335    -3.566808   -0.854882 
C    1.827269    -2.260976   1.983338  
H    -3.461279   -1.416818   1.920378  
H    -3.748606   -1.768016   0.215036  
H    -3.69043    -3.089207   1.402244  
H    -2.841186   -3.006157   -1.504557 
H    -1.286284   -3.167922   -2.324695 
H    -1.938567   -4.535249   -1.404417 
H    0.872825    -3.85629    -1.817811 
H    2.080875    -2.821543   -1.045357 
H    1.774643    -4.452614   -0.418286 
H    2.629015    -2.414486   1.256528  
H    1.956775    -1.265236   2.422329  
H    1.957573    -2.994328   2.78682   
H    -0.050868   -0.845406   3.550638  
H    -1.754241   -0.589481   3.169059  
H    -1.238157   -2.098933   3.94598   
C    -1.964107   -0.237587   -2.198441 
O    -3.003776   -0.479797   -1.566442 
H    -4.477595   0.230524    -1.070601 
O    -5.15846    0.647889    -0.49097  
O    -0.778142   -0.42513    -1.757501 
C    -1.774584   -2.281711   0.902695  
H    -1.819596   4.145172    2.523871  
H    -2.967623   0.44694     0.68925   
C    -2.034419   0.3397      -3.600256 
H    -3.025002   0.1809      -4.028104 
H    -1.836517   1.415365    -3.547145 
H    -1.266372   -0.107622   -4.233653 
C    -0.752882   -1.980864   1.865597  
C    0.483486    -2.414168   1.336133  
H    2.130353    2.155457    1.397509  
C    2.06807     0.613723    0.124773  
O    1.458919    -0.345605   -0.386316 
C    0.242168    -3.019269   0.055263  
C    -0.962023   -1.341319   3.203783  
H    -3.594378   2.556526    1.765692  
C    3.508945    0.807217    -0.167266 
C    5.913378    -0.054319   -1.017436 
C    6.286148    1.256547    -0.344344 
C    4.028031    2.029895    -0.427944 
S    4.406048    -0.723231   -0.272103 
C    3.26153     3.311391    -0.612276 
H    2.194457    3.152279    -0.761129 
H    3.415701    3.985006    0.23867   
H    3.670769    3.813602    -1.493016 
O    5.342638    2.274136    -0.643546 
H    5.770288    0.104756    -2.089376 
H    6.69755     -0.799819   -0.869622 
H    6.35356     1.12393     0.741112  
H    7.237227    1.637817    -0.721513 
C    -5.075314   1.982374    -0.554908 
O    -5.72834    2.684112    0.177194  
C    -4.108739   2.525475    -1.589736 
H    -3.084546   2.272648    -1.296069 
H    -4.299339   2.074484    -2.568286 
H    -4.218748   3.607579    -1.645061 
