55                                     
                                       
C    -1.698767   3.585418    1.358357  
C    -0.403976   3.487577    0.871942  
C    0.077529    2.231743    0.486811  
C    -0.685511   1.054526    0.599048  
C    -1.991554   1.190139    1.068261  
C    -2.49438    2.439689    1.432994  
H    3.024963    -0.045766   1.861097  
H    0.229724    4.361971    0.757692  
C    1.36524     2.068341    -0.177936 
Co   0.249268    -0.520686   -0.017299 
C    0.504078    -1.33009    1.934648  
C    -0.59156    -2.002103   1.287     
C    -0.073856   -2.660305   0.144427  
C    1.322847    -2.394813   0.056544  
C    1.679591    -1.593709   1.185783  
C    0.425356    -0.550941   3.213084  
C    -1.993191   -2.112644   1.803118  
C    -0.840556   -3.480171   -0.845635 
C    2.222789    -2.961777   -1.00292  
C    3.050064    -1.088782   1.529917  
H    -2.188212   -1.366412   2.577079  
H    -2.713288   -1.968686   0.994312  
H    -2.153325   -3.101543   2.247835  
H    -1.914515   -3.396256   -0.678336 
H    -0.636187   -3.144119   -1.867677 
H    -0.545351   -4.533391   -0.770482 
H    1.871413    -2.705896   -2.009357 
H    3.251449    -2.604974   -0.896914 
H    2.255238    -4.055276   -0.939435 
C    -1.762066   -0.467801   -1.923192 
O    -2.532228   -0.942428   -1.077802 
H    -3.905081   0.250133    -0.819582 
O    -4.575051   0.957676    -0.746725 
H    -5.379959   0.552543    -1.094404 
O    -0.486944   -0.359104   -1.771819 
H    2.853805    -0.458561   -1.643791 
H    4.481661    1.400113    -2.213762 
H    3.940943    3.69159     -1.300229 
H    3.483669    -1.684322   2.340535  
N    1.620128    0.798027    -0.576246 
C    3.595799    1.581317    -1.618939 
C    3.282901    2.844177    -1.119784 
H    0.494408    -1.219514   4.078709  
H    3.731428    -1.148173   0.676676  
H    -2.101577   4.550383    1.649319  
H    -2.653988   0.332228    1.106418  
H    -3.529292   2.517233    1.752509  
C    -2.325723   0.040173    -3.235028 
H    -2.827398   -0.781404   -3.753819 
H    -3.083937   0.792619    -2.995936 
H    -1.553469   0.468897    -3.872658 
C    2.708125    0.563949    -1.307214 
H    1.23883     0.176625    3.284692  
H    -0.514004   0.003862    3.279919  
N    2.183662    3.09654     -0.418081 
