60                                     
                                       
C    3.202216    2.060587    -0.640085 
C    1.983979    2.670337    -0.365542 
C    0.830361    1.902424    -0.204879 
C    0.859038    0.496888    -0.35027  
C    2.079949    -0.098423   -0.618437 
C    3.245576    0.667718    -0.740151 
H    -2.642349   1.522221    -2.18445  
H    1.957429    3.75089     -0.250996 
C    -0.45025    2.447218    0.245787  
Co   -0.84652    -0.342159   -0.018584 
C    -1.171994   -0.901427   -2.04693  
C    -0.702259   -2.048159   -1.315049 
C    -1.658189   -2.335029   -0.31065  
C    -2.709776   -1.377566   -0.392882 
C    -2.416267   -0.509472   -1.490068 
C    -0.500797   -0.280592   -3.235092 
C    0.49797     -2.882376   -1.642135 
C    -1.593654   -3.433915   0.703321  
C    -3.93133    -1.396153   0.479648  
C    -3.252406   0.637079    -1.977897 
H    1.169024    -2.359024   -2.327804 
H    1.051619    -3.130812   -0.733387 
H    0.186922    -3.813019   -2.13038  
H    -0.614446   -3.913169   0.702642  
H    -1.770159   -3.041652   1.71028   
H    -2.363577   -4.185633   0.492757  
H    -3.668486   -1.345784   1.542701  
H    -4.606391   -0.565876   0.253214  
H    -4.498563   -2.321563   0.329281  
C    0.563383    -1.365973   2.145404  
O    1.119771    -2.16103    1.378803  
H    2.991059    -1.866156   1.62575   
O    3.852944    -1.426151   1.74476   
H    4.124357    -1.195491   0.844963  
O    -0.42666    -0.601974   1.82068   
H    -3.260619   1.016211    1.170613  
H    -3.883974   3.374578    1.709139  
H    -2.199099   5.181001    1.238083  
H    0.019384    4.548677    0.326006  
N    -1.392573   1.502177    0.461583  
C    -2.575113   1.836726    0.985093  
C    -2.913813   3.145873    1.284919  
C    -1.971413   4.140882    1.02614   
H    -0.770315   -0.812338   -4.154782 
H    -4.012093   0.925241    -1.246638 
C    -0.733969   3.792448    0.512435  
H    4.096623    2.663145    -0.740261 
H    2.180815    -1.176832   -0.678679 
C    1.062695    -1.225155   3.568532  
H    1.150562    -2.214986   4.022617  
H    2.06976     -0.797394   3.518602  
H    0.413249    -0.586006   4.166125  
H    -3.76944    0.364401    -2.90432  
H    -0.795579   0.766069    -3.35381  
H    0.587083    -0.304194   -3.130681 
O    4.39046     -0.044843   -0.934018 
C    5.614868    0.661686    -0.928115 
H    6.396803    -0.089277   -1.036926 
H    5.667818    1.367126    -1.765394 
H    5.751683    1.200923    0.016033  
