55                                     
                                       
C    -3.130121   2.416723    1.48171   
C    -1.962851   2.91056     0.919996  
C    -0.969631   2.014523    0.503937  
C    -1.102951   0.61839     0.645733  
C    -2.30339    0.152224    1.187444  
C    -3.301277   1.035331    1.602781  
H    2.723181    1.255841    1.89681   
C    2.148043    1.686758    -1.267633 
C    0.245109    2.440628    -0.188819 
Co   0.434638    -0.376045   0.011644  
C    1.035868    -1.015899   1.949572  
C    0.347873    -2.095068   1.290183  
C    1.094282    -2.435598   0.135964  
C    2.227279    -1.576231   0.052524  
C    2.200668    -0.718287   1.196221  
C    0.634149    -0.3749     3.243868  
C    -0.854193   -2.833106   1.795067  
C    0.75588     -3.49354    -0.866872 
C    3.278182    -1.671348   -1.015508 
C    3.206665    0.338201    1.547013  
H    -1.32778    -2.299887   2.623018  
H    -1.588976   -2.964048   0.996109  
H    -0.558491   -3.821014   2.16578   
H    -0.268004   -3.845809   -0.736251 
H    0.848547    -3.104318   -1.886169 
H    1.442986    -4.341721   -0.765859 
H    2.845971    -1.564378   -2.017048 
H    4.053613    -0.90991    -0.893661 
H    3.77636     -2.646439   -0.978795 
C    -1.348699   -1.247867   -1.926308 
O    -1.915357   -1.90618    -1.045791 
H    -3.721284   -1.2228     -1.078465 
O    -4.391468   -0.522033   -1.176087 
H    -3.941755   0.251637    -0.809331 
O    -0.265617   -0.567077   -1.747259 
H    2.743619    0.83115     -1.572121 
H    2.110116    4.899879    -1.561578 
H    -0.009184   4.591914    -0.275188 
H    -1.835216   3.982832    0.796284  
N    1.057673    1.421192    -0.546582 
C    1.777855    3.908753    -1.262734 
H    1.02995     -0.940821   4.094717  
H    3.836143    0.60084     0.692606  
C    0.607576    3.743135    -0.542953 
H    -3.911148   3.096603    1.806008  
H    -2.488082   -0.91476    1.251195  
C    -1.936783   -1.194402   -3.321188 
H    -2.037371   -2.212934   -3.705401 
H    -2.943852   -0.773851   -3.237475 
H    -1.327392   -0.595477   -3.997251 
H    3.866201    -0.014842   2.347073  
H    1.015117    0.647938    3.314962  
H    -0.453408   -0.325635   3.34096   
N    2.556287    2.887491    -1.644396 
H    -4.230453   0.640858    2.004649  
