62                                     
                                       
C    2.279629    3.861863    -0.261457 
C    0.906794    3.65426     -0.266394 
C    0.411055    2.348054    -0.187738 
C    1.263825    1.226308    -0.142783 
C    2.635654    1.466327    -0.107528 
C    3.138075    2.768091    -0.156171 
H    -2.198668   0.470111    -2.356034 
H    0.234853    4.508002    -0.295695 
C    -1.009384   2.037466    -0.003777 
Co   0.27894     -0.4368     -0.194076 
C    0.446826    -0.526094   -2.307543 
C    1.493846    -1.328686   -1.72518  
C    0.876501    -2.379049   -1.009551 
C    -0.539444   -2.255076   -1.141373 
C    -0.796097   -1.124488   -1.96675  
C    0.633819    0.66738     -3.196237 
C    2.96747     -1.165671   -1.931888 
C    1.552799    -3.479346   -0.252114 
C    -1.515962   -3.287935   -0.661363 
C    -2.143961   -0.62327    -2.394472 
H    3.214684    -0.156247   -2.268211 
H    3.508287    -1.358424   -1.001612 
H    3.318662    -1.870495   -2.694495 
H    2.626289    -3.308393   -0.176479 
H    1.158492    -3.552911   0.766696  
H    1.375314    -4.438957   -0.752361 
H    -1.299429   -3.60116    0.365825  
H    -2.546362   -2.926315   -0.692599 
H    -1.456045   -4.183035   -1.291979 
C    1.771308    -1.049784   2.054999  
O    2.746747    -1.233391   1.312937  
H    4.123942    -0.187814   1.864177  
O    4.765076    0.485674    2.167501  
H    5.527551    -0.028831   2.461431  
O    0.565241    -0.864079   1.644295  
H    -4.17373    3.287563    0.128865  
H    -1.850265   4.008011    -0.354395 
H    -2.353618   -0.928355   -3.425688 
C    -2.497094   0.36595     0.681306  
N    -1.248884   0.762456    0.294631  
C    -3.345171   2.58766     0.201397  
H    0.692952    0.365284    -4.248089 
H    -2.940323   -1.017523   -1.756999 
C    -2.068056   2.985707    -0.070053 
H    2.677482    4.870766    -0.306351 
H    3.333852    0.644536    -0.005436 
H    4.211485    2.921457    -0.094058 
C    1.975386    -1.038924   3.557145  
H    2.324157    -2.024693   3.878452  
H    2.76793     -0.318588   3.781509  
H    1.060992    -0.777812   4.088707  
C    -3.600231   1.254925    0.617489  
H    -0.199954   1.369921    -3.095768 
H    1.546854    1.211708    -2.940671 
C    -2.686006   -0.944331   1.180603  
C    -3.94358    -1.362439   1.540181  
H    -4.082668   -2.365521   1.93186   
C    -4.886436   0.788806    0.981942  
C    -5.058718   -0.499086   1.423679  
H    -6.044844   -0.852414   1.706325  
H    -1.812796   -1.573869   1.309617  
H    -5.727858   1.473057    0.915015  
