55                                     
                                       
C    -3.419845   1.988172    1.405222  
C    -2.346899   2.654148    0.829726  
C    -1.215872   1.910128    0.489268  
C    -1.090704   0.523117    0.704712  
C    -2.197872   -0.112953   1.265288  
C    -3.345373   0.607749    1.603416  
H    -0.106968   -0.376216   3.330437  
H    -2.384907   3.720062    0.622864  
C    -0.082429   2.443718    -0.238853 
Co   0.574632    -0.205501   -0.013784 
C    1.543701    -2.137982   -0.038496 
C    2.514513    -1.099929   -0.14584  
C    2.438811    -0.31739    1.049031  
C    0.975379    -0.306384   3.193817  
C    -0.213365   -2.897171   1.716352  
C    1.303479    -3.188933   -1.076953 
C    3.454278    -0.928887   -1.302798 
C    3.283128    0.871791    1.403327  
H    -0.715411   -2.459184   2.582785  
H    -0.96401    -3.117489   0.953788  
H    0.247435    -3.83677    2.042047  
H    0.392308    -3.748722   -0.863986 
H    1.191531    -2.736657   -2.06789  
H    2.151618    -3.882178   -1.115082 
H    2.922143    -1.025913   -2.254876 
H    3.936999    0.052288    -1.291281 
H    4.246622    -1.685973   -1.28672  
H    4.002577    1.098381    0.612346  
H    2.67351     1.765368    1.574453  
C    -1.244748   -1.220968   -1.845521 
O    -1.560746   -2.074467   -1.005963 
H    -3.346399   -1.849905   -0.608358 
O    -4.30255    -1.675593   -0.507097 
H    -4.719147   -2.461071   -0.884686 
O    -0.244794   -0.41641    -1.732329 
C    1.796716    2.366656    -1.438277 
C    1.247393    3.80979     -1.392401 
H    1.253095    0.74543     3.30812   
H    3.852754    0.675576    2.317722  
N    0.913827    1.67184     -0.51136  
H    -2.205584   -1.190701   1.394349  
H    -4.20526    0.073378    1.995641  
C    -2.079666   -1.07872    -3.102955 
H    -2.050722   -2.01822    -3.661999 
H    -3.115365   -0.910546   -2.791346 
H    -1.734159   -0.259886   -3.733182 
H    -4.32157    2.53026     1.671027  
H    1.460999    -0.87277    3.996809  
H    1.074461    4.253137    -2.372819 
H    1.714545    1.908174    -2.430122 
C    1.388239    -0.827819   1.850293  
C    0.831058    -1.969975   1.174746  
O    -0.030802   3.683762    -0.730002 
H    2.839454    2.311368    -1.113887 
H    1.869191    4.477137    -0.78997  
