59                                     
                                       
C    -1.770755   3.866546    -0.749867 
C    -2.162325   2.599638    -1.174002 
C    -1.351913   1.503022    -0.879688 
C    -0.132646   1.63652     -0.187411 
C    0.212678    2.909788    0.261131  
C    -0.59392    4.016682    -0.01746  
H    2.418854    -0.108063   -3.756527 
H    1.118966    3.052609    0.846974  
C    -1.760839   0.110138    -1.065618 
Co   0.804886    -0.037091   0.065199  
C    2.065208    -0.177444   -1.627863 
C    2.628515    0.801035    -0.755077 
C    2.881532    0.175054    0.489887  
C    2.59845     -1.233068   0.345712  
C    2.128466    -1.447733   -0.962774 
C    1.606886    0.049528    -3.036845 
C    2.93127     2.214073    -1.144905 
C    3.386424    0.796353    1.756161  
C    2.747076    -2.223019   1.459872  
C    1.728006    -2.741148   -1.605219 
H    2.104409    2.672556    -1.692608 
H    3.144888    2.84043     -0.27638  
H    3.817585    2.224726    -1.789729 
H    3.429524    1.885701    1.677983  
H    2.719207    0.544676    2.587026  
H    4.392904    0.436917    1.998093  
H    2.129475    -1.920679   2.313245  
H    2.443053    -3.227573   1.152889  
H    3.78813     -2.277821   1.796084  
C    -0.806203   -0.320537   2.457858  
O    -1.84405    -0.630168   1.871922  
H    -3.354676   0.482962    1.368953  
O    -3.905304   1.224456    1.058217  
H    -3.274991   1.956691    1.017165  
O    0.363173    -0.185028   1.920381  
H    1.757551    -3.573096   -0.897552 
H    0.718406    -2.6829     -2.0267   
H    2.413782    -2.977162   -2.426321 
H    -2.393532   4.728952    -0.966442 
N    -0.847563   -0.776056   -0.679293 
C    -0.814455   -0.059139   3.955856  
H    -0.672339   1.012213    4.127698  
H    -1.763908   -0.372423   4.389498  
H    0.016883    -0.580792   4.436199  
C    -2.743815   -1.858329   -1.024714 
C    -2.979731   -0.532718   -1.337269 
H    -3.919257   -0.081221   -1.613551 
H    0.790082    -0.631871   -3.294259 
H    1.233367    1.069509    -3.16558  
H    -3.108847   2.456294    -1.688372 
H    -0.305297   4.999872    0.344023  
N    -1.44914    -1.985531   -0.638966 
N    -3.585298   -2.963143   -0.951399 
H    -4.533626   -2.734508   -1.222476 
H    -3.254021   -3.768015   -1.473066 
C    -0.944275   -3.043655   0.215385  
H    -1.691026   -3.253002   0.984464  
H    -0.72187    -3.948431   -0.357723 
H    -0.033933   -2.675602   0.691185  
