59                                     
                                       
C    2.527163    3.371061    0.45162   
C    3.027424    2.12448     0.079805  
C    2.099413    1.073161    -0.105851 
C    0.719411    1.262432    0.138671  
C    0.262464    2.539221    0.457727  
C    1.161919    3.590106    0.608791  
H    0.837319    -3.132018   2.997184  
C    4.524077    1.996506    -0.080466 
C    2.40796     -0.269985   -0.640712 
Co   -0.318257   -0.357555   0.104374  
C    -1.673795   0.032216    1.7428    
C    -2.245156   -0.974924   0.929662  
C    -1.361011   -2.092349   0.892531  
C    -0.244234   -1.783758   1.726597  
C    0.504539    0.240213    3.180078  
C    -2.3394     1.31503     2.1367    
C    -3.557764   -0.913873   0.212168  
C    -1.657316   -3.375676   0.17316   
C    0.93339     -2.669684   2.008782  
H    -1.625709   2.010683    2.584661  
H    -2.796968   1.798471    1.269603  
H    -3.122012   1.118885    2.878382  
H    -3.989223   0.088428    0.238005  
H    -3.43867    -1.208166   -0.837742 
H    -4.266058   -1.613084   0.672237  
H    -1.897566   -3.198446   -0.881861 
H    -0.815699   -4.072677   0.219885  
H    -2.520072   -3.881389   0.6215    
H    1.020578    -3.47357    1.272628  
C    -1.844487   0.797635    -1.891504 
O    -2.267125   1.579591    -1.032365 
H    -4.04969    1.972147    -1.221907 
O    -5.014974   1.857789    -1.327267 
H    -5.098048   0.941548    -1.621228 
O    -0.990723   -0.141094   -1.667827 
H    2.544982    -3.785885   -2.246629 
H    4.623088    -2.371694   -2.134072 
H    1.533047    -0.117129   3.073807  
C    1.373161    -2.283123   -1.25509  
N    1.320728    -1.079013   -0.686125 
C    3.682474    -2.012401   -1.728078 
H    0.438044    -2.833333   -1.282532 
H    1.872675    -2.107543   1.993999  
C    3.619232    -0.746364   -1.16319  
H    3.225707    4.189598    0.60377   
H    -0.801826   2.71618     0.564003  
C    -2.319389   0.911437    -3.328196 
H    -3.297259   1.396075    -3.357598 
H    -1.608848   1.533782    -3.881005 
H    -2.354065   -0.068296   -3.807611 
C    2.540397    -2.802788   -1.7917   
H    0.513449    1.31714     2.992122  
H    0.19595     0.073754    4.218382  
H    0.802152    4.584338    0.85984   
C    -0.417057   -0.468632   2.233308  
H    4.927155    1.136596    0.463934  
H    4.820178    1.901949    -1.13162  
H    5.013608    2.891317    0.311216  
H    4.503717    -0.130516   -1.152582 
