59                                     
                                       
C    0.747998    3.874665    1.115709  
C    1.712238    2.975746    0.675949  
C    1.35151     1.655949    0.363596  
C    0.011411    1.228797    0.507678  
C    -0.935606   2.154509    0.937162  
C    -0.578258   3.469982    1.231489  
H    2.338952    -1.858978   1.63463   
H    2.723308    3.334993    0.545591  
C    2.238962    0.656778    -0.267539 
Co   -0.293281   -0.589954   -0.025609 
C    -0.431246   -1.295799   1.979262  
C    -1.758715   -1.170906   1.438049  
C    -1.856573   -2.061158   0.341325  
C    -0.609112   -2.731437   0.181282  
C    0.260232    -2.273085   1.217159  
C    0.102674    -0.579767   3.183409  
C    -2.87879    -0.359434   2.012793  
C    -3.047813   -2.279451   -0.53861  
C    -0.353169   -3.796627   -0.84473  
C    1.67346     -2.71265    1.466532  
H    -2.502275   0.407346    2.694258  
H    -3.443769   0.134018    1.218407  
H    -3.558585   -1.004498   2.581432  
H    -3.829678   -1.548486   -0.332397 
H    -2.773763   -2.182399   -1.594454 
H    -3.44816    -3.288591   -0.384964 
H    -0.596989   -3.448292   -1.855186 
H    0.689822    -4.125624   -0.839837 
H    -0.971251   -4.680266   -0.64882  
C    -2.001491   0.590185    -1.871287 
O    -2.843189   0.723692    -0.971576 
H    -3.204158   2.504422    -0.773727 
O    -3.300983   3.475084    -0.707639 
H    -4.223569   3.634077    -0.944936 
O    -0.913484   -0.088116   -1.76234  
H    1.461456    -2.166503   -1.788071 
H    3.90462     -2.110807   -2.382439 
H    5.285637    -0.252162   -1.433883 
H    1.723455    -3.353138   2.35375   
N    1.546944    -0.424985   -0.701906 
C    3.461371    -1.335532   -1.769138 
C    4.215355    -0.291511   -1.247928 
H    -0.156493   -1.118146   4.1023    
H    2.075076    -3.279964   0.622893  
C    3.632131    0.723916    -0.493022 
H    1.031391    4.899129    1.336298  
H    -1.981347   1.875491    0.995784  
C    -2.236205   1.268374    -3.206745 
H    -3.163215   0.888722    -3.645446 
H    -2.375364   2.336793    -3.013812 
H    -1.405931   1.112112    -3.894528 
C    2.115716    -1.370075   -1.448727 
H    1.192578    -0.493859   3.140389  
H    -0.301044   0.433681    3.251841  
H    -1.349483   4.178739    1.516845  
C    4.519791    1.811554    0.053047  
H    4.410705    2.745064    -0.508393 
H    4.298115    2.02325     1.102226  
H    5.56596     1.50411     -0.018829 
