58                                     
                                       
C    2.642046    2.74914     1.252308  
C    2.939856    1.473059    0.737671  
C    1.855004    0.632843    0.412122  
C    0.49837     0.9867      0.587952  
C    0.258805    2.264675    1.061469  
C    1.322379    3.135581    1.38507   
H    -0.751669   -3.843091   2.380264  
C    4.276849    0.998701    0.484697  
C    2.115719    -0.619243   -0.222615 
Co   -0.680785   -0.433186   -0.013503 
C    -2.343057   -0.102262   1.293744  
C    -2.809506   -0.79995    0.152848  
C    -2.117659   -2.042108   0.061149  
C    -1.244776   -2.131657   1.190109  
C    -0.639993   -0.617266   3.215036  
C    -2.880292   1.197464    1.808439  
C    -3.829729   -0.32706    -0.834864 
C    -2.36909    -3.069382   -1.004388 
C    -0.338532   -3.275373   1.539457  
H    -2.230624   1.612937    2.582637  
H    -2.963465   1.925665    0.998385  
H    -3.870822   1.046301    2.252686  
H    -4.075416   0.72287     -0.674006 
H    -3.453292   -0.428021   -1.858204 
H    -4.742792   -0.928      -0.749497 
H    -2.203337   -2.658244   -2.006883 
H    -1.725873   -3.94562    -0.883199 
H    -3.405411   -3.423198   -0.964492 
H    -0.215134   -3.966432   0.701808  
C    -1.270331   1.494552    -1.91819  
O    -1.951984   2.087185    -1.07064  
H    -1.227473   3.751795    -0.813269 
O    -0.759399   4.606831    -0.740023 
H    -1.388331   5.246948    -1.097277 
O    -0.772337   0.316536    -1.766552 
H    2.508689    -3.903988   -2.124041 
H    4.554861    -2.64569    -1.432009 
H    0.309444    -1.156809   3.277226  
C    1.170594    -2.459525   -1.253698 
N    1.01674     -1.328798   -0.581133 
C    3.562745    -2.271191   -1.193244 
H    0.261611    -2.974264   -1.550045 
H    0.65786     -2.927347   1.829454  
C    3.425549    -1.05216    -0.508309 
H    3.450119    3.430571    1.504194  
H    -0.75452    2.64298     1.148287  
C    -0.970969   2.180794    -3.23627  
H    -1.911201   2.407434    -3.746564 
H    -0.481752   3.132566    -3.005928 
H    -0.334225   1.572492    -3.877595 
C    2.434703    -2.971769   -1.576521 
H    -0.414099   0.449639    3.286758  
H    -1.246036   -0.901397   4.082906  
H    1.085128    4.140705    1.719817  
C    4.514696    -0.203509   -0.104428 
C    -1.359753   -0.933141   1.938542  
H    5.109722    1.639938    0.762224  
H    5.530036    -0.535033   -0.301893 
