66                                     
                                       
C    3.350537    0.904435    -1.876822 
C    2.140473    1.583092    -1.957381 
C    1.015556    1.052657    -1.322604 
C    1.045547    -0.17458    -0.62571  
C    2.27076     -0.822274   -0.522546 
C    3.402194    -0.280545   -1.14201  
O    -0.470495   -0.36282    1.915146  
N    -1.168884   1.19042     -0.507342 
C    -0.240241   1.767674    -1.189098 
Co   -0.720953   -0.689964   -0.01493  
C    -1.767515   -1.531937   -1.621645 
C    -0.631032   -2.344018   -1.3514   
C    -0.727205   -2.783858   0.004831  
C    -2.005693   -2.357265   0.508955  
C    -2.647727   -1.593352   -0.480055 
C    -2.052712   -0.828284   -2.913545 
C    0.432076    -2.687777   -2.347445 
C    0.239085    -3.663085   0.743154  
C    -2.537334   -2.63814    1.880389  
C    -4.03979    -1.044384   -0.401759 
H    0.687097    -1.833993   -2.980789 
H    1.350294    -3.033716   -1.869606 
H    0.064197    -3.491847   -2.994309 
H    1.179046    -3.771757   0.197708  
H    0.471709    -3.263801   1.736732  
H    -0.177136   -4.666058   0.882472  
H    -1.76484    -3.067865   2.522533  
H    -2.914374   -1.729259   2.359261  
H    -3.362094   -3.356246   1.824545  
H    1.705756    0.74944     1.856232  
C    0.409743    -0.375296   2.784431  
O    1.592441    0.143657    2.649205  
O    2.218633    2.150354    1.123444  
H    3.110556    3.997713    0.163261  
H    -2.500716   -1.516133   -3.63843  
H    -4.329954   -0.828858   0.62946   
H    2.081835    2.524598    -2.498474 
H    -4.16133    -0.12579    -0.981037 
H    -4.741018   -1.786539   -0.799851 
H    2.377535    -1.756985   0.023588  
C    0.176974    -1.005664   4.124405  
H    0.909534    -1.804375   4.273501  
H    0.343478    -0.263607   4.909014  
H    -0.833943   -1.403958   4.185464  
H    4.244853    1.284235    -2.358367 
Cl   4.918388    -1.119638   -1.003125 
H    -2.75133    -0.000231   -2.76351  
C    3.417359    2.346267    0.995357  
O    3.875497    3.446656    0.407892  
H    -1.136569   -0.426096   -3.357665 
C    4.513731    1.450405    1.483054  
H    4.112931    0.47823     1.769628  
H    5.274021    1.332542    0.708107  
H    4.988143    1.921112    2.349658  
H    -0.381368   2.775366    -1.586758 
C    -2.418574   1.824946    -0.282573 
C    -3.083501   2.506037    -1.304619 
C    -2.993037   1.713523    0.984977  
C    -4.323758   3.08477     -1.048949 
H    -2.647199   2.553156    -2.298823 
C    -4.22609    2.304945    1.232822  
H    -2.459539   1.173314    1.762748  
C    -4.895423   2.987066    0.217254  
H    -4.846674   3.604799    -1.844742 
H    -4.669421   2.23062     2.220472  
H    -5.863177   3.436989    0.411305  
