75                                     
                                       
C    -1.218774   3.183425    -0.419328 
C    0.14886     3.351841    -0.595076 
C    1.007086    2.263194    -0.420391 
C    0.520197    0.986977    -0.063064 
C    -0.852463   0.84299     0.086731  
C    -1.729908   1.926922    -0.085098 
O    2.080343    -1.097436   -1.495125 
N    3.088558    1.157023    -0.388636 
C    2.461121    2.331896    -0.621669 
Co   1.917098    -0.298886   0.297717  
C    2.543201    -0.162781   2.298715  
C    1.172057    -0.535476   2.287546  
C    1.055361    -1.761658   1.560325  
C    2.386311    -2.195347   1.235026  
C    3.301024    -1.22508    1.688156  
C    3.108217    1.077974    2.922042  
C    0.073601    0.205518    2.984732  
C    -0.188725   -2.583213   1.388118  
C    2.732481    -3.455849   0.502661  
C    4.795723    -1.333531   1.654113  
H    0.148752    1.285533    2.834424  
H    -0.913975   -0.111452   2.644862  
H    0.140644    0.006099    4.060022  
H    -1.09277    -1.971423   1.362104  
H    -0.173538   -3.166679   0.463926  
H    -0.284724   -3.288661   2.220914  
H    1.901945    -3.797562   -0.122017 
H    3.613691    -3.324891   -0.132678 
H    2.953776    -4.25777    1.215125  
H    -0.207779   -2.058305   -1.567198 
C    1.651646    -1.998144   -2.221794 
O    0.456448    -2.509664   -2.16282  
O    -1.824817   -1.851595   -1.138476 
H    -1.547124   0.152921    -2.235161 
H    3.366412    0.900697    3.971438  
H    4.826881    0.055094    -0.485691 
H    6.226265    1.961972    -1.27326  
H    5.115255    4.188015    -1.623931 
H    2.670336    4.384304    -1.238074 
H    5.15457     -1.842003   0.753612  
C    4.396659    1.038116    -0.640523 
H    0.534242    4.331424    -0.86187  
H    5.278279    -0.354899   1.715537  
H    5.140839    -1.9183     2.513649  
C    4.544487    3.330331    -1.283167 
C    3.180199    3.444811    -1.061207 
H    -1.892215   4.027102    -0.542368 
H    -1.291354   -0.108614   0.368284  
C    2.512964    -2.620655   -3.278085 
H    2.656429    -3.677567   -3.033997 
H    2.002988    -2.575432   -4.242874 
H    3.474437    -2.113485   -3.32742  
C    5.16834     2.10029     -1.085484 
C    -3.178486   1.750083    0.111626  
H    -3.793368   2.659136    0.064101  
H    4.013925    1.409399    2.405714  
C    -2.704788   -1.243695   -1.730614 
O    -2.46479    -0.12754    -2.411651 
H    2.386529    1.898817    2.888592  
C    -4.125659   -1.704466   -1.809098 
H    -4.410657   -2.134148   -0.848217 
H    -4.793258   -0.883992   -2.069642 
H    -4.192646   -2.484718   -2.573869 
N    -3.682298   0.601975    0.340423  
C    -5.082097   0.479019    0.480495  
C    -5.559962   -0.447851   1.412213  
C    -5.987671   1.191121    -0.31482  
C    -6.927872   -0.623814   1.581617  
H    -4.841512   -1.007627   2.00328   
C    -7.355768   0.996166    -0.152389 
H    -5.617168   1.86538     -1.082161 
C    -7.82971    0.097369    0.800192  
H    -7.292356   -1.332034   2.31877   
H    -8.053334   1.543016    -0.778739 
H    -8.897272   -0.051437   0.923519  
