73                                     
                                       
C    -3.496027   0.101262    -1.740927 
C    -2.346011   -0.567541   -2.165889 
C    -1.149758   -0.329521   -1.472362 
C    -1.062552   0.580791    -0.386443 
C    -2.226889   1.179785    0.047863  
C    -3.445336   0.944883    -0.617989 
O    0.698764    -0.251721   1.915377  
N    1.077711    -0.802233   -0.936984 
C    0.055584    -1.087812   -1.680676 
Co   0.77113     0.782584    0.224214  
C    1.311829    2.372659    -0.993677 
C    0.635109    2.921815    0.150636  
C    1.352249    2.52527     1.298017  
C    2.548775    1.834314    0.870023  
C    2.547143    1.800321    -0.536276 
C    0.897674    2.540548    -2.424424 
C    -0.550508   3.831646    0.101792  
C    1.005744    2.804746    2.727748  
C    3.59615     1.307102    1.801757  
C    3.622494    1.27759     -1.436616 
H    -1.244009   3.563451    -0.697194 
H    -1.101755   3.842666    1.044701  
H    -0.196981   4.852039    -0.084558 
H    -0.054862   3.037395    2.849041  
H    1.236316    1.941351    3.358345  
H    1.583082    3.656846    3.102199  
H    3.146124    0.674433    2.575285  
H    4.344682    0.714487    1.270605  
H    4.111986    2.130359    2.306976  
H    -1.127106   -1.893056   1.641441  
C    0.428908    -1.214734   2.636632  
O    -0.527337   -2.068216   2.430058  
O    -2.423679   -1.980856   0.6762    
H    -4.274075   -1.605787   -0.522646 
H    1.360926    3.429023    -2.866809 
H    4.265897    0.546698    -0.942085 
H    3.207044    0.807491    -2.331521 
H    4.246366    2.116718    -1.764216 
H    -4.419283   -0.024119   -2.298646 
H    -2.255821   1.858884    0.895651  
C    1.255783    -1.513793   3.853604  
H    0.677899    -2.070177   4.590751  
H    2.10457     -2.133023   3.542233  
H    1.641737    -0.587348   4.279342  
C    2.28871     -1.535823   -1.038695 
C    3.053603    -1.713178   0.116649  
C    2.754713    -2.027855   -2.26111  
C    4.261402    -2.399501   0.053661  
H    2.697117    -1.303147   1.056464  
C    3.963902    -2.712959   -2.316413 
H    2.195409    -1.839291   -3.173042 
C    4.720043    -2.903106   -1.161981 
H    4.848429    -2.537697   0.956254  
H    4.32445     -3.083717   -3.270268 
H    5.666181    -3.431127   -1.211847 
H    0.104159    -1.921316   -2.383684 
H    1.195061    1.67553     -3.025363 
C    -3.551789   -2.216948   1.081323  
O    -4.60812    -2.004867   0.308937  
H    -0.187309   2.643266    -2.508808 
C    -3.901655   -2.755048   2.434525  
H    -4.563428   -2.050293   2.944212  
H    -4.44896    -3.693854   2.317573  
H    -2.997987   -2.918196   3.019888  
C    -2.419824   -1.535955   -3.320233 
H    -1.655969   -1.324924   -4.074187 
H    -2.273316   -2.566427   -2.976791 
H    -3.393712   -1.485268   -3.811916 
O    -4.513858   1.580357    -0.109097 
C    -5.781703   1.37083     -0.709407 
H    -6.068978   0.314444    -0.655196 
H    -6.486251   1.968223    -0.133445 
H    -5.784865   1.705022    -1.752108 
