74                                     
                                       
C    3.05339     0.325325    -2.438868 
C    1.801973    0.890647    -2.674008 
C    0.745048    0.592364    -1.816833 
C    0.882918    -0.281951   -0.711614 
C    2.144912    -0.77208    -0.450706 
C    3.236097    -0.490846   -1.312506 
O    -0.608985   0.456938    1.786725  
N    -1.427881   0.891602    -1.009045 
C    -0.548798   1.227095    -1.894822 
Co   -0.830596   -0.629178   0.146207  
C    -1.7331     -2.122376   -0.982769 
C    -0.602205   -2.69672    -0.326896 
C    -0.782278   -2.518768   1.073061  
C    -2.101667   -1.972064   1.277451  
C    -2.696846   -1.754262   0.026029  
C    -1.945131   -2.045039   -2.464456 
C    0.524218    -3.39527    -1.021101 
C    0.132058    -2.953006   2.179769  
C    -2.701851   -1.672415   2.615385  
C    -4.109004   -1.322844   -0.225022 
H    0.760178    -2.922706   -1.977988 
H    1.429925    -3.411754   -0.414408 
H    0.219617    -4.428266   -1.224129 
H    1.074233    -3.333129   1.784786  
H    0.365169    -2.118765   2.851776  
H    -0.342128   -3.738785   2.777133  
H    -1.922789   -1.486409   3.359089  
H    -3.355965   -0.796205   2.575919  
H    -3.299931   -2.521694   2.963126  
H    1.308182    1.960192    1.525364  
C    -0.145279   1.230323    2.623226  
O    0.879751    2.010897    2.434434  
O    2.366787    2.196014    0.318338  
H    3.925232    2.125181    -1.28578  
H    -2.339404   -2.989792   -2.853567 
H    -4.509377   -0.73316    0.602507  
H    -4.211277   -0.730088   -1.136839 
H    -4.734869   -2.215731   -0.335312 
C    -0.730411   1.323373    4.002394  
H    -0.591668   2.323322    4.413128  
H    -1.785545   1.051815    3.977322  
H    -0.203469   0.611608    4.647126  
C    -2.714783   1.489455    -1.00343  
C    -3.299048   1.795623    0.227311  
C    -3.412238   1.729611    -2.190093 
C    -4.56699    2.363513    0.267459  
H    -2.748054   1.586796    1.140312  
C    -4.685135   2.290683    -2.139954 
H    -2.974188   1.446677    -3.143403 
C    -5.264036   2.610386    -0.914352 
H    -5.015751   2.610922    1.224137  
H    -5.229053   2.466989    -3.062086 
H    -6.257725   3.043901    -0.879627 
H    -0.767844   2.003214    -2.631812 
H    -2.659785   -1.255722   -2.716398 
C    3.555662    2.389721    0.520337  
O    4.428345    2.359442    -0.478117 
H    -1.007744   -1.83156    -2.987285 
C    4.182821    2.673924    1.850617  
H    4.960646    1.933094    2.052758  
H    4.664954    3.654599    1.817713  
H    3.426852    2.657342    2.634794  
O    4.408632    -1.045923   -0.960227 
C    5.543095    -0.796576   -1.775614 
H    5.780909    0.273099    -1.794612 
H    6.364412    -1.344801   -1.31749  
H    5.381666    -1.162638   -2.794652 
H    1.658421    1.553967    -3.52314  
H    3.870352    0.505089    -3.129375 
O    2.37206     -1.587678   0.631928  
C    3.036521    -0.938028   1.704211  
H    3.151637    -1.67924    2.496632  
H    4.02573     -0.58201    1.394912  
H    2.437495    -0.095068   2.075213  
