61                                     
                                       
C    -2.801448   2.204388    1.813961  
C    -2.079055   2.592481    0.689868  
C    -0.968904   1.830083    0.326043  
C    -0.537106   0.68983     1.025161  
C    -1.308666   0.302603    2.119518  
C    -2.416142   1.056566    2.517606  
O    -0.345364   -1.283907   -0.75835  
N    0.823628    1.295906    -1.138526 
C    -0.142787   2.103729    -0.83695  
Co   0.983296    -0.194954   0.183539  
C    2.073178    -0.188836   2.006218  
C    1.698687    -1.518287   1.635075  
C    2.368454    -1.831215   0.403449  
C    3.07135     -0.688388   -0.028558 
C    2.856046    0.348364    0.952104  
C    1.749346    0.533744    3.276362  
C    0.885172    -2.501973   2.424249  
C    2.255347    -3.157666   -0.282287 
C    3.958337    -0.568675   -1.232437 
C    3.436592    1.731549    0.924944  
H    0.547819    -2.072751   3.370187  
H    0.002958    -2.836008   1.867645  
H    1.483726    -3.386988   2.663438  
H    1.210993    -3.479415   -0.348843 
H    2.678319    -3.139711   -1.289176 
H    2.795935    -3.919272   0.289821  
H    3.820762    -1.404158   -1.92311  
H    3.785576    0.358835    -1.78561  
H    5.009386    -0.571315   -0.92503  
H    -2.350104   -1.666223   -1.762804 
C    -0.481617   -1.530904   -1.96258  
O    -1.642577   -1.845622   -2.453454 
O    -3.27435    -0.86049    -0.67239  
H    0.898067    0.092215    3.796472  
H    -4.119158   0.515103    0.915947  
H    2.521499    2.287156    -1.897315 
H    1.099026    3.976816    -2.879643 
H    3.931841    1.934979    -0.027913 
C    1.563609    1.893172    -2.254999 
H    -2.359754   3.467731    0.111408  
H    2.667809    2.495764    1.081114  
H    4.18575     1.849863    1.714636  
C    0.613584    3.015418    -2.720118 
H    -3.65368    2.789067    2.14635   
H    -1.059624   -0.592295   2.6836    
H    -2.989232   0.748668    3.388284  
C    0.631832    -1.526819   -2.965241 
H    0.75173     -2.539331   -3.362209 
H    0.364816    -0.878184   -3.803426 
H    1.562529    -1.19687    -2.503513 
H    0.031289    2.740609    -3.602657 
H    1.765026    1.164364    -3.043528 
O    -0.313358   3.161072    -1.61627  
H    1.519069    1.586352    3.09222   
C    -4.409464   -0.941069   -0.230359 
O    -4.848567   -0.100677   0.693144  
H    2.615405    0.488066    3.945965  
C    -5.438381   -1.950271   -0.64152  
H    -5.756807   -2.521463   0.233969  
H    -6.317333   -1.430879   -1.031463 
H    -5.032087   -2.618279   -1.399168 
