64                                     
                                       
C    -3.654489   -0.922934   0.833767  
C    -2.72582    -0.425373   1.756599  
C    -1.409422   -0.259388   1.357164  
C    -0.949456   -0.594299   0.074075  
C    -1.89015    -1.049811   -0.83161  
C    -3.240423   -1.218853   -0.46933  
O    0.906485    1.132561    -1.412348 
N    0.75075     0.615039    1.57544   
N    -0.426893   0.36169     2.176196  
Co   0.96443     -0.382772   -0.112959 
C    1.804599    -2.059894   0.774682  
C    1.131127    -2.49238    -0.406624 
C    1.685526    -1.779023   -1.504951 
C    2.811122    -1.02157    -1.012964 
C    2.89556     -1.202548   0.377532  
C    1.497481    -2.500927   2.174215  
C    0.052204    -3.527433   -0.450312 
C    1.272454    -1.850641   -2.944387 
C    3.70712     -0.179061   -1.866017 
C    3.939327    -0.638414   1.292008  
H    -0.623141   -3.448069   0.404793  
H    -0.549343   -3.456846   -1.35787  
H    0.5167      -4.51948    -0.427929 
H    0.336127    -2.399844   -3.064374 
H    1.129568    -0.848614   -3.361785 
H    2.035445    -2.359745   -3.542149 
H    3.166707    0.215032    -2.730336 
H    4.132019    0.660813    -1.307917 
H    4.541812    -0.779405   -2.243578 
H    0.450137    2.800519    0.222296  
C    1.305555    2.302051    -1.408267 
O    1.176045    3.113466    -0.392121 
O    -1.184654   2.555754    0.599887  
H    -3.164035   1.408935    0.374512  
H    2.063068    -3.401661   2.434398  
H    4.298753    0.338144    0.953865  
C    1.471302    1.335191    2.436264  
H    -3.054578   -0.169822   2.759765  
H    3.566316    -0.534906   2.313602  
H    4.803181    -1.310859   1.325457  
H    -4.682419   -1.065471   1.143209  
H    -1.619956   -1.303833   -1.854201 
C    1.98772     2.912743    -2.593758 
H    1.511069    3.863338    -2.843803 
H    3.027717    3.129683    -2.330026 
H    1.955825    2.231424    -3.442164 
H    1.046349    2.106797    4.484804  
H    2.468238    1.659618    2.173163  
C    0.74052     1.557133    3.60888   
C    -0.471111   0.922004    3.397497  
H    -1.347677   0.841256    4.022105  
H    1.751948    -1.722567   2.900352  
C    -1.991457   2.719505    -0.304174 
O    -3.136678   2.062022    -0.355397 
H    0.433556    -2.72739    2.289305  
C    -1.80168    3.641489    -1.473572 
H    -1.534677   3.038073    -2.348471 
H    -2.73722    4.154266    -1.702636 
H    -1.012123   4.361619    -1.261614 
O    -4.052551   -1.675263   -1.442931 
C    -5.425366   -1.847521   -1.138724 
H    -5.883257   -0.897427   -0.84101  
H    -5.892553   -2.205712   -2.054488 
H    -5.562779   -2.588743   -0.343528 
