62                                     
                                       
C    -2.9851     -1.274239   -1.995412 
C    -1.859092   -2.077609   -1.853691 
C    -0.715222   -1.501042   -1.309896 
C    -0.617041   -0.160167   -0.921099 
C    -1.769165   0.601019    -1.054328 
C    -2.946132   0.057838    -1.583277 
O    0.107071    -0.074491   1.63396   
N    1.440689    -1.619323   -0.387187 
N    0.462475    -2.257671   -1.060466 
Co   1.048576    0.296543    -0.055178 
C    2.392588    1.114556    -1.419465 
C    1.294651    2.013244    -1.293755 
C    1.188899    2.377004    0.079585  
C    2.324467    1.818832    0.771243  
C    3.066013    1.050369    -0.143708 
C    2.844753    0.449133    -2.684533 
C    0.43554     2.48896     -2.423313 
C    0.186664    3.293219    0.71499   
C    2.613692    2.042481    2.223718  
C    4.361673    0.34087     0.114674  
H    0.146779    1.674661    -3.091855 
H    -0.475605   2.973974    -2.06917  
H    0.997854    3.225446    -3.007555 
H    -0.705971   3.416996    0.09737   
H    -0.128366   2.913192    1.691777  
H    0.620059    4.287129    0.870323  
H    1.752921    1.782204    2.849386  
H    3.476198    1.463096    2.561265  
H    2.834907    3.10028     2.400306  
H    -1.437014   -1.102104   2.972379  
C    0.394367    -0.834055   2.572764  
O    -0.524841   -1.298581   3.35765   
O    -2.823653   -1.148801   2.131239  
H    -4.764119   -1.40003    1.016975  
H    3.634683    1.032577    -3.169059 
H    4.415635    -0.087306   1.120728  
C    2.427485    -2.500715   -0.232032 
H    -1.887415   -3.122569   -2.145394 
H    4.531934    -0.457604   -0.611561 
H    5.194096    1.046175    0.018962  
H    -3.898264   -1.687581   -2.415996 
H    -1.795739   1.64395     -0.748744 
C    1.783061    -1.283996   2.908424  
H    1.983991    -1.07488    3.962209  
H    1.847961    -2.366694   2.766722  
H    2.513543    -0.779248   2.276298  
H    2.668624    -4.631556   -0.849396 
H    3.333599    -2.219484   0.285829  
C    2.080386    -3.728417   -0.811464 
C    0.814961    -3.530394   -1.330291 
H    0.154842    -4.195409   -1.866034 
C    -4.162482   0.907012    -1.662956 
O    -4.210351   2.034777    -1.228602 
H    -5.045623   0.44194     -2.143163 
H    3.238846    -0.553352   -2.492059 
C    -3.483877   -0.217022   1.69924   
O    -4.617268   -0.436373   1.039557  
H    2.018512    0.350815    -3.393133 
C    -3.170337   1.23486     1.877351  
H    -3.514606   1.811819    1.01602   
H    -3.701974   1.593075    2.765366  
H    -2.09617    1.350093    2.027545  
