73                                     
                                       
C    2.245605    -3.156444   -0.638037 
C    0.876802    -3.313042   -0.778257 
C    0.026689    -2.262824   -0.417068 
C    0.515477    -1.042215   0.094207  
C    1.890359    -0.896111   0.209079  
C    2.74644     -1.948298   -0.138847 
O    -0.474961   1.129225    -1.300648 
N    -2.049446   -1.193705   -0.357488 
C    -1.402788   -2.278782   -0.63148  
Co   -0.897588   0.243569    0.413281  
C    -1.411129   0.072529    2.42277   
C    -0.11784    0.680385    2.359117  
C    -0.239239   1.859535    1.583982  
C    -1.643689   2.064155    1.299751  
C    -2.362877   0.994971    1.857458  
C    -1.750232   -1.210746   3.119276  
C    1.103541    0.162697    3.051076  
C    0.840879    2.815861    1.182295  
C    -2.180951   3.234641    0.535717  
C    -3.849702   0.848485    1.960247  
H    1.218837    -0.917073   2.932228  
H    2.016571    0.644647    2.695828  
H    1.012016    0.377417    4.121633  
H    1.83645     2.413553    1.390659  
H    0.777289    3.032066    0.1107    
H    0.740405    3.760994    1.727223  
H    -1.617541   3.386728    -0.390486 
H    -3.233641   3.097669    0.277405  
H    -2.09789    4.150938    1.129806  
H    1.381084    1.732011    -2.540026 
C    -0.351787   0.947607    -2.52133  
O    0.664391    1.416329    -3.174657 
O    2.613061    1.689589    -1.513419 
H    4.208028    1.067195    0.029829  
H    -1.999682   -1.033489   4.171112  
H    -4.378644   1.479226    1.244101  
H    0.476516    -4.237272   -1.1861   
H    -4.180773   -0.181904   1.807765  
H    -4.15762    1.14999     2.967921  
H    2.916557    -3.949162   -0.946966 
H    2.326116    0.027328    0.572517  
C    -1.364544   0.253849    -3.38246  
H    -0.892309   -0.118219   -4.290783 
H    -1.847256   -0.553618   -2.833156 
H    -2.134894   0.979634    -3.664191 
N    4.142721    -1.796365   0.02868   
C    5.081976    -2.777723   0.133975  
C    6.297775    -2.16716    0.3117    
H    4.811755    -3.821572   0.104862  
C    6.00132     -0.789538   0.306958  
H    7.257633    -2.642636   0.436676  
H    6.670698    0.053044    0.414112  
N    4.705934    -0.576849   0.141926  
H    -2.612214   -1.695631   2.650471  
C    3.306725    2.478788    -0.883961 
O    4.164089    2.073452    0.025849  
H    -0.911293   -1.91129    3.085582  
C    3.271406    3.970153    -1.050758 
H    3.128888    4.445135    -0.076721 
H    4.234633    4.308664    -1.442319 
H    2.474884    4.258436    -1.735805 
H    -1.916737   -3.141292   -1.06298  
C    -3.447462   -1.10402    -0.58903  
C    -4.310506   -2.155829   -0.274013 
C    -3.95271    0.087289    -1.115662 
C    -5.675886   -2.017272   -0.507137 
H    -3.918796   -3.060742   0.182258  
C    -5.315737   0.212142    -1.355994 
H    -3.268619   0.906014    -1.328525 
C    -6.180179   -0.838538   -1.051451 
H    -6.347434   -2.830324   -0.252072 
H    -5.706431   1.134422    -1.77389  
H    -7.24521    -0.734843   -1.228823 
