83                                     
                                       
C    1.615312    4.291473    -1.430584 
C    0.544742    3.394723    -1.442256 
C    0.792401    2.08175     -1.050163 
C    2.055586    1.59562     -0.709966 
C    3.087922    2.530412    -0.664101 
C    2.875787    3.868147    -1.008071 
O    2.613493    -0.240169   1.475027  
N    0.098047    -0.034797   -0.296571 
N    -0.255591   1.144085    -0.861944 
Co   2.069842    -0.31784    -0.434095 
C    2.100679    -1.061694   -2.371703 
C    3.379681    -0.475788   -2.120946 
C    3.929434    -1.124128   -0.986398 
C    3.060246    -2.227524   -0.637611 
C    1.963269    -2.21211    -1.512474 
C    1.135587    -0.652428   -3.443382 
C    4.008899    0.601382    -2.945534 
C    5.230701    -0.829156   -0.305832 
C    3.328594    -3.193917   0.473221  
C    0.873723    -3.229952   -1.62905  
H    3.278102    1.341005    -3.280642 
H    4.797056    1.128103    -2.404675 
H    4.460029    0.141955    -3.832181 
H    5.633741    0.140176    -0.608104 
H    5.106375    -0.819944   0.781185  
H    5.976328    -1.592228   -0.552916 
H    3.60853     -2.663177   1.389353  
H    2.45237     -3.810259   0.687221  
H    4.158293    -3.858351   0.209198  
H    0.720675    0.93805     2.448514  
C    2.355177    -0.09518    2.670169  
O    1.273341    0.463592    3.137316  
O    0.030988    2.249173    1.73231   
H    0.516996    4.231897    0.700768  
H    1.218405    0.416424    -3.660598 
H    0.716461    -3.787232   -0.702663 
C    -1.041425   -0.68733    -0.027145 
H    -0.446811   3.723518    -1.740045 
H    -0.075663   -2.772564   -1.916533 
H    1.145716    -3.943921   -2.414971 
H    1.456763    5.320108    -1.737918 
H    4.086042    2.216638    -0.363937 
H    3.696378    4.577042    -0.966567 
C    3.267745    -0.625296   3.735353  
H    4.261389    -0.801757   3.325725  
H    3.309919    0.063339    4.579942  
H    2.855051    -1.573516   4.096919  
C    -2.144429   0.105851    -0.425735 
C    -1.586776   1.262624    -0.945942 
C    -3.576403   -0.140998   -0.263422 
H    -3.873237   -0.998916   0.352041  
H    0.102715    -0.852038   -3.140754 
C    0.11689     3.329036    2.303513  
O    0.368959    4.446736    1.646344  
H    1.32361     -1.200347   -4.372857 
C    -0.072407   3.53845     3.775506  
H    0.67637     4.234112    4.157384  
H    -1.057305   3.987057    3.937942  
H    -0.020586   2.584795    4.299235  
N    -4.417105   0.639231    -0.817235 
C    -5.795579   0.436277    -0.589187 
C    -6.667622   0.701977    -1.649113 
C    -6.311623   0.02494     0.645253  
C    -8.034433   0.509589    -1.491969 
H    -6.250695   1.04556     -2.590195 
C    -7.682827   -0.148517   0.800879  
H    -5.643599   -0.119347   1.489696  
C    -8.546109   0.082907    -0.267373 
H    -8.704316   0.703694    -2.323458 
H    -8.079014   -0.455268   1.763717  
H    -9.615288   -0.052172   -0.141327 
H    -2.076335   2.143138    -1.334162 
C    -1.061814   -2.028252   0.577573  
C    -1.977843   -2.98451    0.122457  
C    -0.151847   -2.377486   1.57885   
C    -1.971066   -4.270269   0.651976  
H    -2.666862   -2.732601   -0.67894  
C    -0.144838   -3.664843   2.106458  
H    0.531956    -1.627175   1.957256  
C    -1.051121   -4.615431   1.640775  
H    -2.678106   -5.006811   0.284991  
H    0.561753    -3.924132   2.889126  
H    -1.04595    -5.619563   2.05192   
