75                                     
                                       
C    3.044705    -1.199997   1.022358  
C    2.003389    -2.031845   0.63673   
C    0.715424    -1.484663   0.559521  
C    0.398818    -0.162372   0.875462  
C    1.463781    0.648985    1.264231  
C    2.753823    0.147986    1.324816  
O    -0.409007   0.952702    -1.33948  
N    -1.510252   -1.564216   -0.289616 
C    -0.395855   -2.180348   -0.055643 
Co   -1.370851   0.382549    0.278832  
C    -1.72429    1.309447    2.163632  
C    -1.579399   2.283989    1.131173  
C    -2.674559   2.11459     0.21885   
C    -3.439034   1.006069    0.630108  
C    -2.821796   0.475122    1.821785  
C    -0.927483   1.179346    3.424077  
C    -0.579634   3.399917    1.039043  
C    -2.920513   3.016834    -0.950061 
C    -4.749823   0.581009    0.038486  
C    -3.324139   -0.643429   2.689328  
H    0.036989    3.458708    1.938649  
H    0.086227    3.279269    0.176995  
H    -1.09396    4.360567    0.934425  
H    -1.98857    3.246888    -1.476564 
H    -3.62901    2.589686    -1.663158 
H    -3.336858   3.968284    -0.600528 
H    -4.810441   0.815711    -1.027873 
H    -4.938804   -0.487175   0.157829  
H    -5.567685   1.113727    0.536282  
H    1.451714    1.453292    -2.564938 
C    -0.424187   1.110133    -2.562442 
O    0.664055    1.412078    -3.206538 
O    2.689634    1.417703    -1.552783 
H    0.026472    1.705293    3.364035  
H    4.486534    1.056391    -0.104921 
H    -1.838751   -4.688542   -1.040039 
H    -4.310296   -0.985158   2.367938  
C    -2.445108   -2.557212   -0.879489 
H    2.170679    -3.063795   0.349144  
H    -2.647073   -1.503956   2.68611   
H    -3.419307   -0.300153   3.724306  
C    -1.467095   -3.689308   -1.268954 
H    1.352315    1.711764    1.453308  
C    -1.648046   1.005433    -3.421249 
H    -1.820031   1.968105    -3.910849 
H    -1.481185   0.265254    -4.207971 
H    -2.51386    0.732063    -2.818596 
H    -1.158175   -3.636022   -2.318274 
O    -0.300414   -3.444365   -0.457163 
H    -0.718776   0.13276     3.659777  
C    3.822191    1.095535    -1.894946 
O    4.798392    0.910368    -1.033415 
H    -1.498827   1.609125    4.254911  
C    4.252815    0.886852    -3.318457 
H    4.952648    1.680339    -3.595111 
H    4.782338    -0.063631   -3.409461 
H    3.392761    0.909588    -3.98704  
O    3.788584    1.029145    1.535033  
C    4.49967     0.873185    2.770885  
H    4.969357    -0.10997    2.825731  
H    5.257237    1.655935    2.783836  
H    3.80763     1.013701    3.606235  
C    -3.170042   -1.998129   -2.093596 
H    -3.819575   -2.76066    -2.534631 
H    -3.794649   -1.14609    -1.810422 
H    -2.453199   -1.67423    -2.853251 
C    -3.421057   -3.052661   0.18672   
H    -4.030243   -2.2327     0.567893  
H    -4.088048   -3.810672   -0.235779 
H    -2.878467   -3.496846   1.027605  
O    4.351691    -1.547348   1.080036  
C    4.69069     -2.866417   0.690463  
H    5.772119    -2.941388   0.791641  
H    4.207733    -3.604501   1.340372  
H    4.404822    -3.050852   -0.351266 
