62                                     
                                       
C    -1.576308   3.22579     1.747524  
C    -0.441086   3.364335    0.961599  
C    0.215817    2.225034    0.482247  
C    -0.237736   0.925312    0.775869  
C    -1.393005   0.817438    1.555996  
C    -2.054126   1.949294    2.042675  
C    1.037506    -2.603719   0.260986  
N    1.855167    1.07114     -0.764703 
C    1.393995    2.287329    -0.396793 
Co   0.905906    -0.466545   0.04369   
C    -0.702357   -2.424011   2.170241  
C    0.31529     -3.602901   -0.588534 
C    3.19319     -2.512813   -1.169643 
C    3.934528    -0.393808   1.187688  
H    -0.905865   -1.771345   3.021508  
H    -1.571614   -2.41018    1.506128  
H    -0.593344   -3.44258    2.557557  
H    -0.759928   -3.588001   -0.394948 
H    0.482644    -3.41687    -1.654106 
H    0.681612    -4.612208   -0.370479 
H    2.690477    -2.387715   -2.135377 
H    4.136523    -1.962181   -1.200872 
H    3.445248    -3.573652   -1.069612 
H    4.501665    -0.352753   0.254937  
H    3.742584    0.634752    1.507281  
H    4.571106    -0.864504   1.944024  
H    2.097436    0.595918    3.131997  
H    0.496426    -0.052627   3.478268  
H    1.941181    -0.917946   4.034607  
C    -1.279754   -0.864253   -1.767848 
O    -1.98578    -1.179125   -0.713165 
H    -2.977273   -1.199203   -0.908929 
O    -4.511349   -0.873798   -1.095485 
O    -0.077054   -0.616091   -1.651499 
H    -3.47027    0.682198    0.36755   
H    -2.087212   4.103815    2.127709  
H    -1.787521   -0.163953   1.808473  
C    -1.954326   -0.85011    -3.10653  
H    -2.220761   -1.876557   -3.378581 
H    -2.882631   -0.275254   -3.057626 
H    -1.283861   -0.433386   -3.855359 
C    1.564397    -1.113029   1.937456  
C    2.661372    -1.170836   1.035861  
C    1.519549    -0.328556   3.213276  
C    2.329191    -2.072728   -0.023011 
C    -5.075265   -0.004493   -0.442007 
O    -4.438539   0.830115    0.366349  
C    -6.552864   0.226508    -0.470797 
H    -7.019664   -0.468056   -1.166024 
H    -6.957958   0.085984    0.534815  
H    -6.754958   1.259302    -0.764967 
C    0.551619    -2.018223   1.455942  
C    2.003471    3.447699    -0.878386 
C    2.871806    0.971601    -1.629072 
C    3.073151    3.343471    -1.754884 
H    1.636224    4.420048    -0.572967 
C    3.513596    2.082449    -2.15181  
H    3.167793    -0.034805   -1.906151 
H    3.554768    4.238498    -2.135092 
H    4.333934    1.958666    -2.848369 
H    -0.075526   4.359493    0.725434  
H    -2.945      1.834336    2.654601  
