61                                     
                                       
C    -2.52785    -0.990549   2.81042   
C    -2.425834   0.206783    2.111289  
C    -1.361323   0.377848    1.220879  
C    -0.355969   -0.590579   1.054026  
C    -0.505205   -1.795882   1.736527  
C    -1.585212   -1.999481   2.599274  
C    2.885693    -0.896133   0.517363  
N    -0.222532   1.42621     -0.565078 
C    -1.288282   1.488925    0.268822  
Co   1.085149    0.01584     -0.070679 
C    2.114317    -0.595654   2.997818  
C    3.162899    -2.36849    0.488     
C    3.783244    -0.424783   -1.871807 
C    3.027494    2.576085    -0.939322 
H    1.217284    -0.127099   3.410043  
H    1.979432    -1.677689   3.044686  
H    2.96211     -0.3344     3.6408    
H    2.647245    -2.893598   1.295725  
H    2.84198     -2.80581    -0.462996 
H    4.234924    -2.56427    0.596938  
H    3.17685     -1.213888   -2.326824 
H    3.853055    0.402471    -2.580951 
H    4.792004    -0.821947   -1.71865  
H    3.075025    2.405419    -2.0182   
H    2.235622    3.303112    -0.737877 
H    3.972638    3.041365    -0.639506 
H    1.32672     3.154475    1.328196  
H    0.945441    2.039949    2.645486  
H    2.535807    2.811747    2.570049  
C    0.004569    -2.171255   -1.927047 
O    -1.290612   -2.177818   -1.873227 
H    -1.720499   -1.315661   -1.581362 
O    -2.789088   -0.115888   -1.342406 
O    0.72753     -1.240758   -1.548332 
H    -3.995778   1.359749    -0.06736  
H    0.229975    -2.59027    1.616457  
C    0.595677    -3.429523   -2.489843 
H    0.661098    -4.164324   -1.679793 
H    -0.045854   -3.841738   -3.268804 
H    1.597726    -3.236187   -2.871466 
C    2.25876     1.219527    1.152539  
C    2.829479    1.304967    -0.171322 
C    1.738319    2.366392    1.965976  
C    3.196533    0.008638    -0.565008 
C    -3.828232   -0.389322   -0.749605 
O    -4.521322   0.529226    -0.102446 
C    -4.406084   -1.765203   -0.635962 
H    -4.034551   -2.399219   -1.440339 
H    -4.084524   -2.177478   0.327264  
H    -5.495902   -1.724812   -0.641193 
C    2.40363     -0.124706   1.607995  
C    -0.159805   2.286542    -1.582778 
C    -2.15658    3.289478    -0.827813 
C    -1.120906   3.270272    -1.755562 
H    0.67961     2.175086    -2.262756 
H    -2.950334   4.029603    -0.890855 
H    -1.072323   3.97363     -2.576603 
H    -3.16587    0.991298    2.237448  
H    -1.683865   -2.944671   3.125283  
N    -2.257198   2.399541    0.160661  
H    -3.343986   -1.144248   3.508544  
