61                                     
                                       
C    -1.570129   3.268681    1.704595  
C    -0.439444   3.39407     0.911553  
C    0.215913    2.243447    0.455877  
C    -0.228825   0.945823    0.776188  
C    -1.379963   0.853993    1.564805  
C    -2.040657   1.995393    2.028538  
H    -3.453464   0.650109    0.360052  
N    1.860052    1.070619    -0.766689 
C    1.388115    2.291227    -0.422793 
Co   0.908412    -0.461208   0.051327  
C    -0.702414   -2.402155   2.181812  
C    0.29996     -3.591656   -0.578618 
C    3.178201    -2.509401   -1.177431 
C    3.943283    -0.399943   1.177797  
H    -0.896804   -1.749542   3.035304  
H    -1.574034   -2.379888   1.52107   
H    -0.600374   -3.422234   2.566895  
H    -0.775091   -3.567636   -0.384788 
H    0.469886    -3.411964   -1.644791 
H    0.65829     -4.602736   -0.355684 
H    2.670907    -2.37794    -2.139698 
H    4.124174    -1.963794   -1.212786 
H    3.424827    -3.571869   -1.081866 
H    4.49921     -0.34847    0.238653  
H    3.761995    0.624042    1.517531  
H    4.588274    -0.885238   1.917615  
H    2.127113    0.592922    3.140292  
H    0.515987    -0.034294   3.481967  
H    1.947534    -0.920423   4.038442  
C    -1.282002   -0.865738   -1.758029 
O    -1.992829   -1.160541   -0.700614 
H    -2.984022   -1.200442   -0.903216 
O    -4.517143   -0.898972   -1.086457 
O    -0.080487   -0.611185   -1.63979  
C    1.030745    -2.59555    0.266901  
H    -2.083699   4.151879    2.068486  
H    -1.77232    -0.121991   1.840783  
C    -1.946902   -0.884981   -3.101188 
H    -2.17091    -1.923601   -3.366148 
H    -2.896667   -0.345587   -3.065464 
H    -1.285533   -0.452064   -3.849043 
C    1.572325    -1.106322   1.94097   
C    2.664587    -1.169305   1.034079  
C    1.535771    -0.323211   3.217819  
C    2.322606    -2.069365   -0.024284 
C    -5.071387   -0.028136   -0.426509 
O    -4.420369   0.803657    0.374505  
C    -6.54791    0.208292    -0.437784 
H    -7.025794   -0.487308   -1.124384 
H    -6.941173   0.073855    0.573329  
H    -6.749508   1.240588    -0.734223 
C    0.552021    -2.005611   1.463147  
C    2.012825    3.42616     -0.939289 
C    2.882048    0.994203    -1.62508  
C    3.083191    3.232927    -1.799183 
H    1.675015    4.423208    -0.68579  
H    3.205924    -0.003881   -1.905623 
H    3.612552    4.079332    -2.228484 
H    -0.074553   4.383387    0.650406  
H    -2.929069   1.891126    2.645893  
N    3.519817    2.019716    -2.15975  
