63                                     
                                       
C    -1.512966   3.574048    1.323956  
C    -0.218224   3.575139    0.825761  
C    0.372199    2.364419    0.46941   
C    -0.255952   1.128878    0.576619  
C    -1.560932   1.169792    1.0965    
C    -2.186449   2.362182    1.465717  
C    0.90042     -2.431981   1.057884  
N    1.797654    0.542573    -1.184333 
O    1.709121    2.499262    0.058867  
Co   0.776433    -0.46705    0.182493  
C    3.037915    -2.790026   -0.383467 
C    3.837525    -0.093919   1.12761   
H    -1.076715   -0.603174   3.251225  
H    -1.652246   -1.924978   2.225325  
H    -0.66299    -2.273879   3.651133  
H    -0.927409   -3.537783   0.800373  
H    0.264719    -3.793113   -0.488077 
H    0.50672     -4.529138   1.097868  
H    2.435712    -3.297824   -1.143365 
H    3.746449    -2.133066   -0.895646 
H    3.62053     -3.55715    0.137822  
H    4.207295    -0.153768   0.098999  
H    3.722681    0.962107    1.385836  
H    4.606859    -0.517042   1.781891  
H    2.081012    1.484952    2.77787   
H    0.462236    1.022851    3.30145   
H    1.883974    0.325352    4.101722  
H    -1.986186   4.507108    1.610169  
H    -2.082696   0.233256    1.276112  
C    -1.519463   -1.351342   -1.395628 
O    -2.222439   -1.443222   -0.299147 
H    -3.213055   -1.436178   -0.490114 
O    -4.711323   -1.043927   -0.850857 
O    -0.312749   -1.10701    -1.336014 
H    -3.619296   0.936593    -0.114981 
C    -2.212224   -1.530676   -2.714214 
H    -2.91079    -2.369076   -2.675586 
H    -2.790927   -0.626651   -2.931535 
H    -1.473577   -1.676867   -3.50017  
C    1.488883    -0.494073   2.170012  
C    2.550561    -0.843598   1.29706   
C    1.475876    0.649065    3.138309  
C    2.181511    -2.034      0.587703  
C    -5.23289    0.04944     -0.675168 
O    -4.568472   1.121408    -0.265712 
C    -6.686973   0.320349    -0.899173 
H    -7.173063   -0.575668   -1.279291 
H    -7.14381    0.6259      0.045978  
H    -6.801239   1.149224    -1.601803 
C    0.444838    -1.476067   2.006925  
C    3.152367    2.426792    -1.77882  
H    0.34957     4.492913    0.713629  
H    -3.18985    2.344044    1.882609  
C    3.681094    1.725849    -2.84301  
C    -0.807782   -1.571312   2.823461  
C    0.139274    -3.632733   0.586996  
C    2.193843    1.797584    -0.974456 
C    2.29464     -0.123078   -2.250435 
C    3.23297     0.423379    -3.098403 
H    1.907718    -1.125704   -2.395149 
H    3.608091    -0.151672   -3.936055 
H    4.423416    2.188741    -3.484876 
H    3.436114    3.445282    -1.544346 
