65                                     
                                       
C    -1.884981   3.048085    1.378392  
C    -0.756224   3.256233    0.603522  
C    0.045231    2.169418    0.231429  
C    -0.269813   0.857069    0.625295  
C    -1.429116   0.681187    1.387903  
C    -2.238389   1.754931    1.785293  
C    1.428227    -2.523887   0.475098  
N    1.84673     1.116665    -0.870174 
C    1.234281    2.296316    -0.621981 
Co   1.056867    -0.447029   0.051871  
C    -0.378434   -2.376203   2.323838  
C    0.854685    -3.676335   -0.28927  
C    3.60111     -2.308681   -0.91634  
C    4.019802    0.088961    1.245897  
H    -0.686689   -1.672428   3.099532  
H    -1.220483   -2.532958   1.643234  
H    -0.162112   -3.331185   2.814378  
H    -0.219506   -3.774879   -0.116355 
H    1.02776     -3.568615   -1.364523 
H    1.333287    -4.609391   0.028261  
H    3.116761    -2.329919   -1.899146 
H    4.475459    -1.656375   -0.979628 
H    3.969863    -3.319581   -0.713842 
H    4.611919    0.105524    0.328057  
H    3.699595    1.113952    1.4552    
H    4.678303    -0.227669   2.061365  
H    2.020628    1.03077     3.046869  
H    0.494518    0.233048    3.419894  
H    2.010923    -0.400305   4.087584  
C    -1.011546   -1.230277   -1.761936 
O    -1.699438   -1.553412   -0.698273 
H    -2.68009    -1.675586   -0.908713 
O    -4.214892   -1.464898   -1.227938 
O    0.159705    -0.860551   -1.647935 
H    -3.306415   0.38738     -0.030921 
H    -2.502725   3.891136    1.67492   
H    -1.718271   -0.317511   1.709334  
C    -1.677493   -1.299525   -3.104164 
H    -2.263578   -2.216098   -3.199715 
H    -2.366837   -0.453875   -3.198494 
H    -0.925721   -1.236335   -3.888712 
C    1.726245    -0.832466   2.011255  
C    2.850823    -0.844028   1.142295  
C    1.550766    0.056333    3.20468   
C    2.658032    -1.871478   0.167274  
C    -4.817069   -0.454657   -0.887631 
O    -4.250474   0.552994    -0.238741 
C    -6.270903   -0.22663    -1.157619 
H    -6.667127   -1.047236   -1.752059 
H    -6.804288   -0.160012   -0.205426 
H    -6.403699   0.725766    -1.676135 
C    0.84152     -1.892907   1.599204  
C    1.720919    3.47606     -1.190104 
C    2.896629    1.065859    -1.698456 
C    2.824286    3.425479    -2.028236 
H    1.232515    4.420035    -0.980075 
C    3.422057    2.196489    -2.301987 
H    3.317248    0.081896    -1.878269 
H    3.211298    4.335914    -2.47431  
H    4.274455    2.112667    -2.965162 
H    -0.505808   4.266569    0.292514  
C    -3.461567   1.536481    2.63854   
H    -4.35045    1.967959    2.168663  
H    -3.646963   0.472053    2.806456  
H    -3.33996    2.014404    3.615867  
