61                                     
                                       
C    -1.726342   3.273491    1.510446  
C    -0.644938   3.422717    0.652314  
C    0.084592    2.285606    0.30148   
C    -0.209702   0.986011    0.755258  
C    -1.312507   0.875091    1.607127  
C    -2.052529   2.001903    1.986517  
C    1.294058    -2.480219   0.208717  
N    1.872013    1.205998    -0.812148 
C    1.230112    2.303874    -0.595529 
Co   1.026388    -0.362514   0.029182  
C    -0.424018   -2.420679   2.152638  
C    0.608925    -3.507018   -0.638603 
C    3.375887    -2.144319   -1.307212 
C    4.055643    -0.093763   1.121107  
H    -0.621427   -1.808629   3.035307  
H    -1.312362   -2.406375   1.514822  
H    -0.273055   -3.449295   2.496576  
H    -0.459236   -3.55852    -0.413716 
H    0.733683    -3.296036   -1.705105 
H    1.040093    -4.495639   -0.447341 
H    2.765166    -2.203564   -2.213618 
H    4.134111    -1.374388   -1.468398 
H    3.896851    -3.100909   -1.195334 
H    4.733676    -0.213592   0.27348   
H    3.795441    0.966192    1.207501  
H    4.606698    -0.375493   2.023833  
H    2.251676    0.719521    3.114079  
H    0.670092    0.022345    3.462907  
H    2.141149    -0.809302   3.998907  
C    -1.188752   -0.892961   -1.721286 
O    -1.84796    -1.235034   -0.644984 
H    -2.839977   -1.336105   -0.81935  
O    -4.393997   -1.139799   -0.962149 
O    -0.001126   -0.569065   -1.640104 
H    -3.405215   0.461977    0.482772  
H    -2.310999   4.135839    1.811568  
H    -1.605144   -0.096785   2.000098  
C    -1.897656   -0.941225   -3.041535 
H    -2.103811   -1.986728   -3.29288  
H    -2.859767   -0.426852   -2.975445 
H    -1.27572    -0.494133   -3.814333 
C    1.761347    -0.985769   1.901138  
C    2.83628     -0.954866   0.976313  
C    1.698869    -0.220794   3.187667  
C    2.534662    -1.849705   -0.100271 
C    -4.990935   -0.321287   -0.27292  
O    -4.380345   0.542602    0.525157  
C    -6.480467   -0.191418   -0.242698 
H    -6.925776   -0.91101    -0.926458 
H    -6.836047   -0.365672   0.776227  
H    -6.762951   0.827297    -0.519536 
C    0.795398    -1.942344   1.422885  
C    2.88096     1.456352    -1.840061 
C    2.819457    2.994144    -1.997438 
H    3.866734    1.115585    -1.514032 
H    3.67493     3.50272     -1.549295 
H    -0.365084   4.395911    0.259571  
H    -2.898072   1.885331    2.659687  
H    2.615025    0.921671    -2.758078 
H    2.684028    3.332381    -3.023898 
O    1.640759    3.382697    -1.245385 
