60                                     
                                       
C    -1.708706   3.330529    1.3272    
C    -0.634203   3.457023    0.454625  
C    0.094136    2.313937    0.139161  
C    -0.181728   1.038877    0.643437  
C    -1.27477    0.95539     1.510696  
C    -2.02899    2.081458    1.856966  
C    1.412982    -2.412221   0.324809  
N    1.817393    1.188555    -0.985257 
N    1.199749    2.360627    -0.757887 
Co   1.052434    -0.330656   -0.002368 
C    -0.303574   -2.28777    2.26774   
C    0.768416    -3.519378   -0.449479 
C    3.482161    -2.118172   -1.210612 
C    4.066417    0.155854    1.034348  
H    -0.528287   -1.623602   3.10501   
H    -1.19212    -2.35963    1.634366  
H    -0.105369   -3.280997   2.684132  
H    -0.30499    -3.571551   -0.249136 
H    0.920482    -3.395421   -1.525771 
H    1.20878     -4.480333   -0.161791 
H    2.915097    -2.096685   -2.147549 
H    4.331797    -1.438824   -1.311477 
H    3.888841    -3.127989   -1.094867 
H    4.585796    0.218468    0.075937  
H    3.768196    1.169437    1.316859  
H    4.782281    -0.203768   1.780635  
H    2.223348    1.020153    3.006768  
H    0.682607    0.263535    3.40723   
H    2.197488    -0.453964   3.984444  
C    -1.193934   -1.051513   -1.650671 
O    -1.832322   -1.309083   -0.538553 
H    -2.825991   -1.423865   -0.684801 
O    -4.388346   -1.24241    -0.821253 
O    -0.009114   -0.711427   -1.615855 
H    -3.421082   0.507053    0.459413  
H    -2.290587   4.205658    1.594974  
H    -1.545499   -0.007452   1.939976  
C    -1.919282   -1.218705   -2.951942 
H    -2.081451   -2.287187   -3.128147 
H    -2.902012   -0.743      -2.905696 
H    -1.326234   -0.800706   -3.76291  
C    1.820322    -0.785038   1.90753   
C    2.887028    -0.767103   0.971809  
C    1.721919    0.058527    3.141286  
C    2.625213    -1.757343   -0.03186  
C    -4.995589   -0.369926   -0.212508 
O    -4.397133   0.577031    0.49552   
C    -6.487092   -0.260411   -0.188545 
H    -6.922846   -1.04842    -0.799113 
H    -6.837057   -0.342979   0.843805  
H    -6.786483   0.722983    -0.559257 
C    0.892574    -1.809112   1.500371  
C    2.771933    1.423387    -1.880748 
H    -0.378076   4.425895    0.037222  
H    -2.866612   1.98437     2.541781  
C    2.776258    2.779311    -2.23531  
C    1.753462    3.343525    -1.49599  
H    3.400693    0.616147    -2.229253 
H    3.431044    3.278596    -2.931652 
H    1.388127    4.35788     -1.447932 
