63                                     
                                       
C    -3.443537   -2.049305   0.288156  
C    -2.765643   -1.459206   1.357734  
C    -1.5185     -0.898914   1.109065  
C    -0.897031   -0.927544   -0.143429 
C    -1.62456    -1.490089   -1.186492 
C    -2.89875    -2.049206   -0.999686 
H    2.584255    -3.152475   2.177565  
N    0.30054     0.47134     1.649135  
N    -0.803194   -0.160563   2.091035  
Co   0.894681    -0.198437   -0.10836  
C    2.088101    -1.709944   0.662773  
C    1.650162    -2.12736    -0.630013 
C    2.073433    -1.144956   -1.566437 
C    2.909992    -0.200736   -0.864867 
C    2.933941    -0.552921   0.494595  
C    1.808002    -2.412316   1.957344  
C    0.898898    -3.388494   -0.917296 
C    1.810094    -1.112758   -3.041974 
C    3.607291    0.957306    -1.507528 
C    3.712033    0.122481    1.581917  
H    0.162261    -3.610457   -0.141704 
H    0.374437    -3.345068   -1.873346 
H    1.611155    -4.219856   -0.960395 
H    1.068886    -1.860593   -3.332131 
H    1.436825    -0.131545   -3.352707 
H    2.726916    -1.318366   -3.603986 
H    3.040687    1.327514    -2.365704 
H    3.758492    1.784023    -0.806907 
H    4.59356     0.649192    -1.870881 
C    0.571443    2.634813    -1.046119 
O    0.134286    3.234759    0.029157  
H    -0.518519   2.656474    0.52068   
O    -2.041254   1.933119    0.688319  
O    0.517985    1.413256    -1.225068 
H    -3.57191    0.332544    0.06032   
H    3.826205    1.195591    1.401632  
C    0.73106     1.234093    2.653805  
H    -3.215489   -1.438552   2.345945  
H    3.242831    -0.016349   2.558737  
H    4.717522    -0.308127   1.637718  
H    -4.416798   -2.49977    0.459911  
H    -1.19866    -1.506378   -2.189659 
C    1.157241    3.561838    -2.0667   
H    0.474595    4.395388    -2.245462 
H    2.087017    3.981047    -1.668833 
H    1.362178    3.025468    -2.991626 
H    -0.036943   1.588038    4.7178    
H    1.617579    1.841141    2.535209  
C    -0.116271   1.098333    3.76029   
C    -1.088744   0.201751    3.354605  
H    -1.952954   -0.188475   3.870232  
H    1.771374    -1.705501   2.792329  
C    -2.803311   2.025268    -0.263611 
O    -3.689784   1.088747    -0.552175 
H    0.847286    -2.933868   1.921209  
C    -2.833916   3.168737    -1.235897 
H    -2.399873   2.832999    -2.183948 
H    -3.86691    3.459597    -1.435347 
H    -2.26899    4.013285    -0.843341 
C    -3.669684   -2.610064   -2.165716 
H    -4.185848   -1.808561   -2.705383 
H    -3.005725   -3.110857   -2.87542  
H    -4.4236     -3.329046   -1.836959 
