76                                     
                                       
C    0.037747    -3.237979   -0.788509 
C    0.886656    -2.136329   -0.84409  
C    0.376484    -0.867328   -0.552388 
C    -0.987388   -0.667506   -0.240902 
C    -1.806355   -1.787194   -0.143002 
C    -1.291127   -3.05849    -0.414608 
H    -0.577077   2.151167    -4.027224 
N    0.47268     1.39702     0.178751  
C    1.139026    0.366472    -0.350467 
Co   -1.476989   1.209994    -0.124905 
C    -1.490283   1.867815    -2.100966 
C    -2.573168   0.954421    -1.941672 
C    -3.405266   1.454658    -0.902631 
C    -2.916307   2.762938    -0.533481 
C    -1.755243   3.024631    -1.2804   
C    -0.338959   1.719117    -3.049454 
C    -2.775609   -0.292064   -2.74463  
C    -4.645093   0.827282    -0.340551 
C    -3.563361   3.635588    0.496324  
C    -0.94707    4.284855    -1.307265 
H    -1.830376   -0.799579   -2.955078 
H    -3.431919   -1.005004   -2.241787 
H    -3.238146   -0.024748   -3.701099 
H    -4.737236   -0.21988    -0.638272 
H    -4.645147   0.871253    0.753227  
H    -5.538479   1.352086    -0.694961 
H    -3.767006   3.072683    1.412109  
H    -2.936012   4.491374    0.754289  
H    -4.517848   4.018689    0.120276  
C    -1.637171   0.644009    2.782142  
O    -0.43532    0.144795    2.918432  
H    0.160174    0.265662    2.141256  
O    1.93323     -0.716898   2.062591  
O    -2.074869   1.139753    1.742493  
H    0.057916    -2.075725   1.930081  
H    -1.129099   4.909595    -0.430381 
C    1.406434    2.381188    0.456464  
H    1.93348     -2.285918   -1.087103 
H    0.125618    4.084043    -1.362375 
H    -1.221313   4.868279    -2.193167 
H    0.408982    -4.233208   -1.003524 
H    -2.858095   -1.692126   0.118349  
C    -2.463125   0.55891     4.02558   
H    -2.51868    -0.483514   4.349852  
H    -1.972301   1.123783    4.822345  
H    -3.460757   0.952419    3.84079   
C    2.667099    1.913876    0.055143  
C    1.27521     3.632861    1.064363  
C    3.829883    2.666237    0.209148  
C    2.427396    4.384506    1.22778   
H    2.364901    5.360054    1.697689  
C    3.684072    3.910736    0.802071  
H    0.304922    3.991855    1.394924  
H    4.559754    4.533477    0.948718  
H    4.795244    2.289914    -0.112066 
H    0.552986    2.227521    -2.668369 
C    1.892026    -1.896656   2.360448  
O    0.778347    -2.62537    2.294092  
H    -0.088577   0.664408    -3.20167  
C    3.07877     -2.705675   2.794351  
H    2.784607    -3.471003   3.513247  
H    3.491267    -3.206562   1.911651  
H    3.836536    -2.04704    3.217545  
N    2.455742    0.641123    -0.471143 
C    3.487104    -0.243567   -0.919151 
C    4.378161    -0.763282   0.016551  
C    3.578633    -0.561601   -2.270748 
C    5.373725    -1.63466    -0.416932 
H    4.266397    -0.489268   1.061241  
C    4.571296    -1.442822   -2.690176 
H    2.875023    -0.126134   -2.974353 
C    5.465792    -1.978369   -1.764952 
H    6.077342    -2.04682    0.299223  
H    4.65104     -1.703907   -3.740027 
H    6.241317    -2.660602   -2.096945 
Br   -2.428878   -4.555194   -0.28687  
