69                                     
                                       
C    -3.65861    -0.357637   -1.261885 
C    -2.470079   -1.015537   -1.551273 
C    -1.268886   -0.537003   -1.027275 
C    -1.204783   0.625942    -0.213254 
C    -2.405287   1.230087    0.106572  
C    -3.627905   0.753079    -0.405804 
H    0.591137    3.116229    -3.453152 
N    1.048117    -0.622927   -0.588565 
C    0.00457     -1.210855   -1.133331 
Co   0.639227    1.168887    0.158526  
C    0.874898    2.483299    -1.418359 
C    0.224487    3.205562    -0.359055 
C    1.065896    3.151561    0.771277  
C    2.308356    2.52034     0.380994  
C    2.202976    2.160719    -0.975624 
C    0.338291    2.272644    -2.801693 
C    -1.054167   3.968092    -0.49236  
C    0.795468    3.697641    2.139723  
C    3.47689     2.356976    1.304615  
C    3.238952    1.525047    -1.851134 
H    -1.763501   3.472867    -1.157649 
H    -1.540865   4.135025    0.470925  
H    -0.821414   4.951012    -0.917748 
H    -0.272098   3.859058    2.305134  
H    1.156299    3.010514    2.91045   
H    1.306894    4.656526    2.277063  
H    3.218746    1.721511    2.15955   
H    4.33961     1.922594    0.794011  
H    3.785284    3.329925    1.700394  
C    0.868242    -0.752345   2.377426  
O    -0.133731   -1.551381   2.105149  
H    -0.974544   -1.102626   1.797439  
O    -2.688362   -1.365404   1.735868  
O    0.944431    0.41369     1.981961  
H    -1.321059   -3.1085     1.012783  
H    4.144102    1.266298    -1.299048 
C    2.162316    -1.447381   -0.54288  
H    -2.487498   -1.901503   -2.183042 
H    2.864949    0.615459    -2.331239 
H    3.517316    2.225862    -2.645257 
H    -4.590038   -0.715468   -1.683674 
H    -2.461666   2.094645    0.761297  
C    1.928102    -1.384728   3.22284   
H    1.501255    -1.661756   4.190493  
H    2.269414    -2.301813   2.733919  
H    2.762101    -0.69846    3.358411  
C    1.956381    -2.700577   -1.143651 
C    3.386329    -1.15241    0.066284  
C    2.967775    -3.658235   -1.190111 
C    4.388182    -2.109684   0.031223  
H    5.34528     -1.900108   0.49699   
C    4.184674    -3.347111   -0.598602 
H    3.528837    -0.193396   0.555702  
H    4.986665    -4.076891   -0.617074 
H    2.806351    -4.620617   -1.663627 
H    0.755737    1.366579    -3.250998 
C    -3.070103   -2.390598   1.204371  
O    -2.236158   -3.341692   0.769168  
H    -0.749888   2.166169    -2.788481 
C    -4.508114   -2.747131   0.984422  
H    -4.655589   -3.09268    -0.040943 
H    -4.777499   -3.568142   1.65535   
H    -5.1296     -1.878556   1.19712   
O    -4.718133   1.439898    -0.025588 
C    -5.978306   1.050637    -0.544413 
H    -6.228076   0.02602     -0.246727 
H    -6.703659   1.740301    -0.116333 
H    -5.99469    1.129716    -1.636763 
S    0.305756    -2.818032   -1.719514 
