69                                     
                                       
C    2.941795    0.010692    -1.664748 
C    1.926117    0.931236    -1.879627 
C    0.67879     0.744453    -1.278704 
C    0.396622    -0.403193   -0.50704  
C    1.435114    -1.295456   -0.278632 
C    2.707742    -1.073066   -0.817305 
H    -0.420258   -1.962014   -2.854159 
N    -1.466076   1.391208    -0.558041 
C    -0.389151   1.750793    -1.293705 
Co   -1.451769   -0.477682   0.060294  
C    -2.081738   -1.689959   -1.516025 
C    -1.712421   -2.545673   -0.415287 
C    -2.540612   -2.21557    0.677128  
C    -3.470712   -1.199551   0.256349  
C    -3.221558   -0.931176   -1.11037  
C    -1.484512   -1.714881   -2.890679 
C    -0.721189   -3.664153   -0.482755 
C    -2.502425   -2.799506   2.054916  
C    -4.525263   -0.607913   1.142729  
C    -3.967847   0.01042     -2.005229 
H    0.077661    -3.451747   -1.196251 
H    -0.27075    -3.874794   0.490914  
H    -1.231649   -4.575324   -0.813504 
H    -1.563236   -3.322851   2.247544  
H    -2.61854    -2.01855    2.811835  
H    -3.320099   -3.51688    2.183187  
H    -4.082249   -0.1849     2.051378  
H    -5.085513   0.181734    0.635737  
H    -5.245871   -1.371789   1.452278  
C    -0.757037   0.744747    2.826001  
O    0.443051    1.226272    2.797979  
H    1.090794    0.993956    2.045928  
O    2.524882    0.966279    1.372787  
O    -1.311989   0.091584    1.934289  
H    4.560301    1.118327    0.259369  
H    -3.284231   1.897513    0.269825  
H    -3.302505   4.196938    -0.72012  
H    -1.3736     4.872959    -2.17932  
H    0.507061    3.287169    -2.510492 
H    -4.63028    0.674587    -1.445845 
C    -2.469035   2.253835    -0.354516 
H    2.127384    1.798636    -2.5029   
H    -3.29052    0.628621    -2.60233  
H    -4.587311   -0.565304   -2.700995 
C    -1.397182   3.893447    -1.71264  
C    -0.34631    3.008284    -1.902924 
H    3.920899    0.151751    -2.107017 
H    1.297411    -2.154415   0.374979  
C    -1.477874   1.035848    4.111654  
H    -1.004959   0.462965    4.914632  
H    -1.372647   2.093453    4.361756  
H    -2.528344   0.760965    4.032906  
C    -2.475119   3.523509    -0.907891 
N    3.762037    -1.954925   -0.486358 
H    3.527358    -2.92952    -0.354719 
C    5.004235    -1.551418   -0.080793 
O    5.341266    -0.375612   -0.022668 
C    5.963751    -2.653279   0.294561  
H    5.57259     -3.655104   0.108889  
H    6.88474     -2.513828   -0.275212 
H    6.213713    -2.549399   1.353281  
H    -1.577863   -0.741048   -3.380234 
C    2.982279    1.987431    0.868672  
O    4.161049    2.030354    0.298976  
H    -1.988299   -2.455841   -3.520646 
C    2.262876    3.306956    0.828753  
H    2.86683     4.064286    1.334949  
H    2.149284    3.620073    -0.212777 
H    1.286635    3.230653    1.307734  
