65                                     
                                       
C    -1.484009   3.186857    1.586208  
C    -0.342712   3.321065    0.794299  
C    0.26638     2.140437    0.305462  
C    -0.231092   0.862487    0.650177  
C    -1.387012   0.785578    1.427608  
C    -2.016877   1.940838    1.891155  
C    0.997941    -2.720281   0.515308  
N    1.823055    0.816392    -0.886622 
C    1.418905    2.084882    -0.624537 
Co   0.877842    -0.614719   0.063216  
C    -0.726105   -2.333829   2.406617  
C    0.267913    -3.803693   -0.216305 
C    3.153109    -2.806245   -0.916917 
C    3.910776    -0.439664   1.180161  
H    -0.93784    -1.580637   3.168021  
H    -1.596448   -2.416119   1.748488  
H    -0.603924   -3.293756   2.919563  
H    -0.806667   -3.760849   -0.023719 
H    0.433042    -3.737822   -1.296404 
H    0.629127    -4.784911   0.111046  
H    2.639862    -2.815271   -1.885242 
H    4.087679    -2.251361   -1.030171 
H    3.421679    -3.841689   -0.682809 
H    4.46393     -0.492518   0.239362  
H    3.726096    0.6161      1.399598  
H    4.557493    -0.835948   1.969831  
H    2.080933    0.77142     3.009819  
H    0.481878    0.167449    3.436384  
H    1.930009    -0.6318     4.077182  
C    -1.29826    -1.205387   -1.704212 
O    -2.005067   -1.405472   -0.62227  
H    -2.997324   -1.432162   -0.812069 
O    -4.525978   -1.089414   -1.026275 
O    -0.096192   -0.944873   -1.612991 
H    -3.432613   0.598784    0.242298  
H    -1.960762   4.083058    1.971629  
H    -1.796297   -0.1835     1.699616  
C    -1.968955   -1.341599   -3.037926 
H    -2.18806    -2.400012   -3.213098 
H    -2.92138    -0.805873   -3.043715 
H    -1.312965   -0.969896   -3.822545 
C    1.539413    -1.05914    2.01661   
C    2.633339    -1.222243   1.122838  
C    1.50331     -0.137653   3.19774   
C    2.292878    -2.233081   0.172121  
C    -5.059604   -0.127972   -0.486119 
O    -4.395304   0.778671    0.215082  
C    -6.528831   0.146553    -0.548008 
H    -7.019766   -0.61477    -1.150494 
H    -6.936973   0.149278    0.466113  
H    -6.696522   1.139626    -0.972092 
C    0.521893    -2.007608   1.642904  
C    2.057248    3.143806    -1.28177  
C    2.788286    0.569276    -1.776711 
C    3.078068    2.887894    -2.187951 
H    1.75671     4.163573    -1.107757 
C    3.454319    1.576878    -2.45456  
H    3.021065    -0.476156   -1.949226 
H    3.566956    3.714752    -2.692978 
H    4.233422    1.335128    -3.167213 
H    -2.913695   1.87065     2.501184  
C    0.156097    4.723928    0.543088  
H    1.217361    4.832508    0.785818  
H    0.008181    5.033034    -0.497394 
H    -0.395506   5.428555    1.168447  
