73                                     
                                       
C    -2.407348   -2.971827   0.077828  
C    -1.055211   -3.258268   0.152102  
C    -0.131606   -2.208374   0.079012  
C    -0.523094   -0.859984   -0.070245 
C    -1.890048   -0.604673   -0.084857 
C    -2.839161   -1.638662   -0.023987 
O    1.08306     0.750711    1.670334  
N    2.029774    -1.336776   0.20996   
C    1.288677    -2.390802   0.26356   
Co   1.00373     0.334052    -0.193573 
C    0.173244    1.458017    -1.841168 
C    0.80146     2.346112    -0.941561 
C    2.202376    2.008167    -0.880564 
C    2.425709    0.926645    -1.756157 
C    0.929694    -0.609698   -3.25133  
C    -1.235481   1.528877    -2.342508 
C    0.203726    3.536235    -0.255337 
C    3.200836    2.737582    -0.034695 
C    3.742473    0.305005    -2.10903  
H    -1.63826    0.532103    -2.542657 
H    -1.905046   2.031855    -1.639428 
H    -1.246618   2.088557    -3.285635 
H    -0.88598    3.546969    -0.320193 
H    0.473778    3.562862    0.803595  
H    0.582153    4.453234    -0.72331  
H    2.857924    2.781906    1.005362  
H    4.176337    2.244348    -0.048575 
H    3.334674    3.766625    -0.386864 
H    1.623385    -1.437041   -3.070201 
H    -2.164782   2.272461    0.754407  
C    0.105419    1.255492    2.34718   
O    -0.962645   1.652537    1.885678  
H    -0.084488   -1.006475   -3.152346 
H    1.066509    -0.280782   -4.287941 
H    4.496727    0.451367    -1.331895 
H    -0.71383    -4.285198   0.262241  
H    3.649382    -0.770352   -2.282502 
H    4.115001    0.757246    -3.035455 
H    -2.251108   0.418514    -0.107942 
C    0.37196     1.332756    3.840759  
H    1.323421    1.838859    4.023566  
H    -0.438711   1.860168    4.342471  
H    0.457953    0.319458    4.243018  
H    1.721235    -3.364412   0.510457  
H    -3.13589    -3.776563   0.090859  
C    -4.286519   -1.314683   -0.065758 
C    -4.748656   -0.210188   -0.794144 
C    -5.220827   -2.094384   0.62788   
C    -6.104436   0.096827    -0.833149 
H    -4.040214   0.416786    -1.328177 
C    -6.57626    -1.78584    0.589864  
H    -4.877586   -2.932596   1.227433  
C    -7.023914   -0.690091   -0.143973 
H    -6.442256   0.955531    -1.405612 
H    -7.283117   -2.397128   1.142718  
H    -8.081821   -0.448075   -0.173936 
O    -2.982926   2.528006    0.283916  
C    -4.028684   2.362297    1.219083  
H    -4.081254   1.330999    1.593476  
H    -3.917193   3.040933    2.074708  
H    -4.970099   2.588475    0.711633  
C    1.160679    0.512133    -2.283043 
C    3.418325    -1.410226   0.482843  
C    3.986639    -0.409679   1.27537   
C    4.217291    -2.418478   -0.060002 
C    5.354584    -0.430069   1.524502  
H    3.334946    0.349143    1.699427  
C    5.585634    -2.426884   0.193444  
H    3.771622    -3.165604   -0.711452 
C    6.158367    -1.432864   0.982702  
H    5.79575     0.342838    2.146532  
H    6.206511    -3.204237   -0.240683 
H    7.226844    -1.437627   1.172468  
