71                                     
                                       
C    3.76636     1.233366    -0.657555 
C    2.560478    1.825257    -0.997909 
C    1.392288    1.074138    -0.788062 
C    1.369158    -0.219816   -0.265476 
C    2.607064    -0.756646   0.111024  
C    3.791809    -0.057693   -0.104097 
O    -0.465749   -0.685279   1.859198  
N    -0.924665   0.937206    -0.543828 
C    0.072169    1.666831    -0.911349 
Co   -0.416073   -0.91178    -0.036093 
C    -0.885377   -1.881255   -1.853032 
C    0.073876    -2.688389   -1.169827 
C    -0.475196   -3.036601   0.089798  
C    -1.833099   -2.551047   0.129438  
C    -2.094545   -1.87553    -1.075657 
C    -0.702211   -1.268281   -3.20886  
C    1.390774    -3.104303   -1.752236 
C    0.158416    -3.814569   1.202133  
C    -2.739653   -2.718638   1.308618  
C    -3.402492   -1.304467   -1.533243 
H    1.998571    -2.243208   -2.046    
H    1.969451    -3.696784   -1.042843 
H    1.211039    -3.711914   -2.646398 
H    1.158991    -4.153362   0.927781  
H    0.247144    -3.187858   2.096052  
H    -0.447924   -4.692188   1.452606  
H    -2.246212   -2.339359   2.210013  
H    -3.677097   -2.172428   1.173901  
H    -2.983307   -3.774931   1.467706  
H    1.037463    2.892229    1.249009  
C    -0.063806   0.329445    2.554865  
O    0.296415    1.416769    2.113738  
H    -1.286336   -0.347261   -3.306557 
H    0.34803     -1.012706   -3.379255 
H    -1.018769   -1.950009   -4.007004 
H    -4.061201   -1.056641   -0.698157 
H    -3.268551   -0.395198   -2.125233 
H    -3.915509   -2.038936   -2.165133 
C    -0.08046    0.069417    4.053527  
H    0.17039     0.97924     4.598318  
H    -1.065331   -0.29454    4.358316  
H    0.644822    -0.714698   4.289578  
C    -2.229803   1.47808     -0.4657   
C    -3.011392   1.131311    0.639783  
C    -2.745962   2.314274    -1.457666 
C    -4.299431   1.640628    0.755909  
H    -2.588934   0.47117     1.3934    
C    -4.040259   2.811521    -1.335398 
H    -2.143047   2.548569    -2.330655 
C    -4.819068   2.478653    -0.230098 
H    -4.902212   1.380079    1.620487  
H    -4.442916   3.453675    -2.112465 
H    -5.82852    2.86648     -0.139471 
H    -0.060593   2.712013    -1.190355 
O    0.933519    3.751854    0.800207  
C    -0.283402   4.280858    1.278313  
H    -0.272094   4.420314    2.366912  
H    -0.428746   5.256058    0.804899  
H    -1.141763   3.638889    1.030604  
H    2.490091    2.849161    -1.344086 
O    2.569246    -1.9817     0.714197  
C    3.795469    -2.583923   1.053216  
H    4.349312    -1.984498   1.785729  
H    3.548244    -3.550841   1.494794  
H    4.423831    -2.737279   0.165934  
H    4.761023    -0.452695   0.177095  
O    4.983984    1.8274      -0.7887   
C    4.989065    3.17553     -1.204309 
H    6.032171    3.49192     -1.197096 
H    4.584141    3.280922    -2.218554 
H    4.407039    3.802957    -0.518571 
