58                                     
                                       
C    -1.604432   3.465045    1.601841  
C    -0.366852   3.4608      0.97817   
C    0.174328    2.246034    0.537462  
C    -0.482961   1.014014    0.731193  
C    -1.735065   1.055535    1.345938  
C    -2.294061   2.261949    1.765874  
O    -0.421739   -0.356196   -1.674881 
N    1.710043    0.909069    -0.652637 
C    1.401559    2.162413    -0.248045 
Co   0.480115    -0.499343   0.002695  
C    0.958585    -1.335234   1.898133  
C    -0.156794   -2.051593   1.337318  
C    0.283969    -2.653815   0.133659  
C    1.650854    -2.311852   -0.076349 
C    2.070969    -1.518836   1.036887  
C    0.961376    -0.593884   3.201188  
C    -1.494936   -2.257559   1.97817   
C    -0.532169   -3.489367   -0.802002 
C    2.475186    -2.810419   -1.227963 
C    3.440038    -0.949588   1.267593  
H    -1.649882   -1.558455   2.803601  
H    -2.297092   -2.119706   1.249035  
H    -1.561912   -3.271959   2.387587  
H    -1.591966   -3.440303   -0.55049  
H    -0.417242   -3.139978   -1.833368 
H    -0.200491   -4.53346    -0.760377 
H    2.027933    -2.539815   -2.191299 
H    3.494515    -2.415315   -1.200973 
O    -4.443959   0.801599    -0.388246 
H    -3.656644   0.225202    -0.405269 
C    -1.697735   -0.526677   -1.713899 
O    -2.370642   -1.012673   -0.793874 
H    1.148005    -1.279436   4.03557   
H    2.934241    -0.287929   -1.797269 
H    2.552907    -3.903024   -1.201024 
H    3.983922    3.693607    -1.798209 
H    2.025848    4.236366    -0.345749 
H    4.046694    -0.964609   0.35828   
C    2.755817    0.729367    -1.460987 
H    0.160263    4.397687    0.816832  
C    3.306471    2.913135    -1.460503 
H    0.004482    -0.094625   3.374125  
C    2.227845    3.216891    -0.649652 
H    -2.044641   4.399233    1.935048  
H    -2.314133   0.145618    1.461785  
C    -2.395032   -0.066121   -2.977573 
H    -2.974455   -0.895153   -3.392434 
H    -3.102829   0.719698    -2.691751 
H    -1.691616   0.312236    -3.7185   
H    3.392731    0.0867      1.617053  
H    3.970694    -1.53211    2.028408  
H    1.739304    0.174721    3.218464  
C    -5.505755   0.013963    -0.868399 
H    -6.398897   0.643671    -0.905732 
H    -5.31666    -0.371622   -1.881193 
H    -5.720261   -0.845167   -0.216386 
N    3.579344    1.672425    -1.887858 
H    -3.288159   2.262709    2.202609  
