65                                     
                                       
C    1.093302    4.274172    -0.696706 
C    0.057854    3.454763    -1.12804  
C    0.0929      2.090633    -0.823784 
C    1.158311    1.523122    -0.101061 
C    2.163723    2.371168    0.353815  
C    2.135348    3.734575    0.057735  
O    0.658186    -0.413751   1.974333  
N    -0.887832   -0.001944   -0.447514 
C    -1.037771   1.17988     -1.037403 
Co   0.97833     -0.368147   0.099885  
C    1.789116    -1.070917   -1.733137 
C    2.874839    -0.64393    -0.908821 
C    2.831259    -1.401501   0.28619   
C    1.796649    -2.397669   0.144742  
C    1.186225    -2.214067   -1.109275 
C    1.434089    -0.519284   -3.081535 
C    3.893789    0.379163    -1.302484 
C    3.702102    -1.270458   1.498449  
C    1.459373    -3.39347    1.211364  
C    0.122451    -3.050792   -1.753563 
H    3.439838    1.231083    -1.814323 
H    4.442681    0.763801    -0.440387 
H    4.619348    -0.082892   -1.982116 
H    4.325157    -0.373713   1.448142  
H    3.083404    -1.200886   2.399026  
H    4.366969    -2.135389   1.602324  
H    1.17499     -2.871596   2.133276  
H    0.632302    -4.042763   0.911095  
H    2.321173    -4.03109    1.436402  
H    -1.579102   2.733882    1.224865  
C    -0.152808   0.360511    2.625375  
O    -0.822716   1.271364    2.150321  
H    0.367591    -0.652773   -3.290589 
H    1.645837    0.55308     -3.133348 
H    1.995417    -1.014742   -3.882371 
H    -4.182779   0.828054    -2.285978 
H    -2.325059   2.473193    -2.208458 
H    -0.323013   -3.760487   -1.053865 
C    -1.942812   -0.865676   -0.343289 
H    -0.792668   3.887971    -1.645058 
H    -0.687806   -2.440496   -2.1653   
H    0.559886    -3.619034   -2.582543 
C    -3.261573   0.608145    -1.752638 
C    -2.238081   1.507903    -1.72613  
H    1.071837    5.336504    -0.917236 
H    2.980545    1.973938    0.95375   
H    2.925574    4.383705    0.425411  
C    -0.229279   0.033204    4.108471  
H    -0.918098   0.712633    4.609576  
H    -0.563879   -1.000153   4.238063  
H    0.765847    0.112889    4.554352  
C    -3.158019   -0.609765   -1.025849 
C    -1.835519   -2.006696   0.488412  
C    -4.217328   -1.542105   -0.920331 
C    -2.890305   -2.880572   0.587764  
H    -2.809971   -3.746798   1.237457  
C    -4.085169   -2.661153   -0.135639 
H    -0.925808   -2.144993   1.064973  
H    -4.903747   -3.368249   -0.050581 
H    -5.140938   -1.344456   -1.457575 
O    -2.344549   3.116618    0.759218  
C    -3.466147   2.403387    1.221501  
H    -3.713663   2.649948    2.263479  
H    -4.318097   2.678014    0.590893  
H    -3.320329   1.316123    1.156586  
