57                                     
                                       
C    -2.434706   -3.224457   0.458596  
C    -2.538349   -1.956099   1.022895  
C    -1.492884   -1.06495    0.815621  
C    -0.340009   -1.369313   0.086573  
C    -0.287531   -2.637612   -0.485825 
C    -1.31729    -3.562941   -0.299408 
O    0.266589    0.553774    -1.817588 
N    -0.492177   1.047837    0.957977  
N    -1.541051   0.275746    1.285761  
Co   0.886829    0.105583    -0.072192 
C    2.343867    0.032402    1.465684  
C    2.531156    -1.102136   0.631716  
C    2.769165    -0.633111   -0.692877 
C    2.865045    0.800355    -0.640333 
C    2.601754    1.211553    0.678145  
C    2.016936    0.008711    2.928992  
C    2.490747    -2.525471   1.097228  
C    2.972561    -1.433459   -1.944108 
C    3.116187    1.662124    -1.83734  
C    2.618054    2.616389    1.202385  
H    1.627878    -2.720527   1.739012  
H    2.439523    -3.22344    0.259526  
H    3.400533    -2.749      1.665636  
H    2.806426    -2.499943   -1.772853 
H    2.278511    -1.101614   -2.723776 
H    3.993298    -1.314399   -2.324465 
H    2.31798     1.518568    -2.573124 
H    3.153473    2.720474    -1.568415 
H    4.07067     1.39832     -2.305404 
H    -3.479984   0.050448    -0.732189 
C    -0.954778   0.760182    -2.191183 
O    -1.939942   0.801186    -1.457183 
H    1.330483    0.819182    3.194052  
H    1.532799    -0.932224   3.204598  
H    2.919       0.116031    3.541878  
H    2.260731    3.33444     0.458175  
C    -0.795405   2.284946    1.333328  
H    -3.432667   -1.660599   1.560341  
H    1.995955    2.712513    2.09645   
H    3.636519    2.908517    1.481962  
H    -3.240567   -3.937753   0.596769  
H    0.565275    -2.915015   -1.101917 
H    -1.25143    -4.545899   -0.756586 
C    -1.09819    0.9584      -3.691877 
H    -0.862896   0.019054    -4.20091  
H    -2.116299   1.2607      -3.93634  
H    -0.385354   1.709204    -4.041981 
H    -2.593824   3.163637    2.321741  
H    -0.099682   3.091752    1.15629   
C    -2.068085   2.312136    1.920103  
C    -2.517082   1.005754    1.854587  
H    -3.46035    0.558286    2.123054  
O    -4.326665   0.109807    -0.250969 
C    -4.838293   1.387457    -0.552032 
H    -5.033506   1.511273    -1.625629 
H    -5.7855     1.499975    -0.016097 
H    -4.155845   2.188911    -0.236059 
