70                                     
                                       
C    -2.838659   -1.363754   -2.056112 
C    -1.52751    -1.734144   -2.302004 
C    -0.493911   -1.070964   -1.633    
C    -0.73957    -0.005079   -0.742809 
C    -2.056605   0.343881    -0.496459 
C    -3.091485   -0.35656    -1.120285 
O    0.517988    -0.218218   1.786445  
N    1.672617    -0.939364   -0.78815  
C    0.867209    -1.546801   -1.59326  
Co   0.854618    0.629261    0.110355  
C    1.719723    2.119687    -1.114755 
C    0.454509    2.591037    -0.664784 
C    0.481025    2.600802    0.759468  
C    1.818422    2.27205     1.177271  
C    2.582602    1.986162    0.032484  
C    2.125331    1.894235    -2.540872 
C    -0.675936   3.0154      -1.551161 
C    -0.626973   2.961438    1.703342  
C    2.240078    2.182642    2.610233  
C    4.05122     1.687891    -0.024654 
H    -0.755433   2.379595    -2.436703 
H    -1.639363   2.980084    -1.038395 
H    -0.505811   4.045468    -1.884953 
H    -1.571346   3.116909    1.175646  
H    -0.776178   2.164799    2.440688  
H    -0.394552   3.884444    2.24643   
H    1.650137    1.415803    3.123773  
H    3.297661    1.924051    2.701614  
H    2.079798    3.139392    3.118747  
H    -2.282817   -2.547099   0.834126  
C    -0.075422   -1.347015   2.012682  
O    -0.449433   -2.15099    1.16079   
H    2.89256     1.115847    -2.609262 
H    1.271927    1.573155    -3.145859 
H    2.533724    2.805749    -2.991781 
H    4.419077    1.269034    0.914533  
H    -1.309945   -2.55196    -2.984403 
H    4.29743     0.975052    -0.816672 
H    4.605919    2.612063    -0.224846 
H    -3.663524   -1.86213    -2.552875 
H    -2.324845   1.112307    0.222526  
C    -0.283698   -1.624352   3.493888  
H    -0.698197   -2.622289   3.637399  
H    0.666537    -1.530437   4.026632  
H    -0.967612   -0.877828   3.909057  
N    -4.422369   -0.06743    -0.753647 
C    -5.452846   -0.951061   -0.658299 
C    -6.537657   -0.242511   -0.201229 
H    -5.293881   -2.002268   -0.845124 
C    -6.050803   1.07531     -0.038398 
H    -7.527346   -0.619969   0.003966  
H    -6.583096   1.953376    0.301028  
N    -4.77302    1.175211    -0.365888 
O    -3.253853   -2.46338    0.89296   
C    -3.508197   -1.60057    1.973307  
H    -3.233811   -2.049768   2.939519  
H    -2.975303   -0.641021   1.876887  
H    -4.581722   -1.387891   1.984759  
H    1.190878    -2.435345   -2.141006 
C    2.998134    -1.389259   -0.59345  
C    3.818587    -1.747176   -1.665251 
C    3.490238    -1.425082   0.714314  
C    5.128607    -2.153554   -1.424495 
H    3.437316    -1.676537   -2.680427 
C    4.795893    -1.840825   0.943363  
H    2.832525    -1.127029   1.527694  
C    5.619419    -2.202952   -0.122668 
H    5.76855     -2.421775   -2.259233 
H    5.175722    -1.878441   1.959658  
H    6.641774    -2.516847   0.061081  
