80                                     
                                       
C    1.86357     4.410062    -0.877276 
C    0.773685    3.559711    -1.024298 
C    0.958738    2.210122    -0.744771 
C    2.180443    1.650613    -0.371051 
C    3.235182    2.543414    -0.180704 
C    3.086158    3.908209    -0.432951 
O    2.200946    -0.119697   1.747215  
N    0.181538    0.011184    -0.428367 
N    -0.123822   1.290869    -0.741364 
Co   2.129729    -0.262955   -0.165149 
C    2.643284    -1.055127   -2.0619   
C    3.812074    -0.451475   -1.517062 
C    4.078331    -1.076191   -0.271121 
C    3.156702    -2.177018   -0.121162 
C    2.296565    -2.17886    -1.232805 
C    1.973616    -0.681838   -3.350448 
C    4.613464    0.616444    -2.194292 
C    5.148954    -0.746209   0.723597  
C    3.148148    -3.093291   1.06252   
C    1.250543    -3.186894   -1.596946 
H    3.982692    1.416554    -2.589221 
H    5.342686    1.06965     -1.52009  
H    5.164085    0.169762    -3.030126 
H    5.67897     0.171042    0.454072  
H    4.707386    -0.603924   1.715337  
H    5.888256    -1.552552   0.786485  
H    2.94187     -2.524366   1.977082  
H    2.388834    -3.871425   0.958872  
H    4.123086    -3.57911    1.179304  
H    -0.795142   2.39914     1.769004  
C    1.40572     0.598488    2.475682  
O    0.263382    0.934177    2.165139  
H    0.889922    -0.820166   -3.28375  
H    2.157078    0.367867    -3.596571 
H    2.338475    -1.293011   -4.18418  
H    0.935136    -3.793106   -0.744618 
C    -0.974135   -0.621725   -0.234982 
H    -0.199631   3.948614    -1.30358  
H    0.360505    -2.706536   -2.012321 
H    1.651775    -3.857049   -2.366576 
H    1.747243    5.469686    -1.080752 
H    4.196465    2.170998    0.167698  
H    3.92477     4.581822    -0.282924 
C    2.003461    1.027656    3.803151  
H    2.691245    1.858899    3.613683  
H    1.219086    1.361887    4.482456  
H    2.580389    0.214025    4.247606  
C    -2.048174   0.271743    -0.465724 
C    -1.447654   1.485807    -0.764595 
H    -1.88696    2.459214    -0.916348 
C    -3.474883   0.025608    -0.320373 
H    -3.765133   -0.914837   0.167077  
O    -0.909066   3.327767    1.496916  
C    0.167       4.014027    2.092989  
H    1.137678    3.569577    1.827635  
H    0.152514    5.043912    1.72467   
H    0.082117    4.03744     3.189306  
C    -1.049472   -2.007942   0.251381  
C    -1.937925   -2.917423   -0.333063 
C    -0.246636   -2.414306   1.321829  
C    -2.011117   -4.224638   0.135788  
H    -2.547687   -2.603779   -1.176461 
C    -0.329682   -3.722228   1.791531  
H    0.432179    -1.700326   1.778894  
C    -1.205657   -4.629705   1.19892   
H    -2.69369    -4.927918   -0.330663 
H    0.291747    -4.031586   2.626825  
H    -1.265246   -5.64911    1.567471  
N    -4.335504   0.870131    -0.737799 
C    -5.699012   0.614089    -0.491609 
C    -6.168649   0.094216    0.720609  
C    -6.615145   0.939214    -1.497858 
C    -7.530352   -0.125552   0.904701  
H    -5.46704    -0.100375   1.526622  
C    -7.971343   0.703182    -1.313439 
H    -6.236635   1.366769    -2.420723 
C    -8.434961   0.168358    -0.111919 
H    -7.885733   -0.518969   1.852322  
H    -8.672085   0.946821    -2.106216 
H    -9.496533   -0.002277   0.036182  
