60                                     
                                       
C    -2.453112   2.95752     0.824803  
C    -2.558055   2.001848    -0.190987 
C    -1.496736   1.094181    -0.296528 
C    -0.339446   1.157691    0.490928  
C    -0.305372   2.107088    1.505696  
C    -1.361372   3.000635    1.681956  
O    0.606234    -1.262932   1.489775  
N    -0.352872   -0.735838   -1.212947 
N    -1.490279   -0.013976   -1.202198 
Co   1.01919     -0.115327   0.025473  
C    2.319988    0.713135    -1.431912 
C    2.491803    1.450703    -0.230174 
C    2.887375    0.536233    0.787416  
C    3.094083    -0.746306   0.169568  
C    2.746143    -0.641774   -1.188419 
C    1.860071    1.262968    -2.748995 
C    2.292846    2.929499    -0.097023 
C    3.141629    0.808082    2.239719  
C    3.525084    -1.968172   0.917999  
C    2.824793    -1.719358   -2.227831 
H    1.359308    3.258729    -0.560691 
H    2.26546     3.241669    0.948598  
H    3.123073    3.453806    -0.583512 
H    2.880993    1.834499    2.509772  
H    2.547863    0.130488    2.862848  
H    4.198479    0.658986    2.487969  
H    2.79549     -2.202165   1.700319  
H    3.613291    -2.833648   0.256991  
H    4.499441    -1.80359    1.39067   
H    -3.21447    -0.737643   0.914965  
C    -0.558884   -1.717336   1.816833  
O    -1.598501   -1.568345   1.177238  
H    1.219195    0.547033    -3.273494 
H    1.279859    2.179041    -2.607838 
H    2.708072    1.498358    -3.402072 
H    2.658235    -2.712279   -1.799716 
C    -0.584919   -1.823542   -1.936098 
H    2.087182    -1.560999   -3.019655 
H    3.813482    -1.723933   -2.700428 
H    -3.261915   3.67361     0.941038  
H    0.553818    2.155098    2.171182  
C    -0.559276   -2.491891   3.125077  
H    -0.367781   -1.799157   3.949959  
H    -1.523125   -2.978029   3.274922  
H    0.243927    -3.232848   3.124871  
H    -2.393916   -2.554188   -3.019727 
H    0.193053    -2.561212   -2.067722 
C    -1.901756   -1.814431   -2.408718 
C    -2.452423   -0.65342    -1.900148 
H    -3.456167   -0.273076   -1.954409 
O    -4.115135   -0.702033   0.54088   
C    -4.514144   -2.045921   0.400767  
H    -4.561679   -2.563843   1.367811  
H    -5.514836   -2.050541   -0.041377 
H    -3.834483   -2.609579   -0.253319 
H    -1.327357   3.73949     2.477352  
C    -3.776132   2.004921    -1.078265 
H    -3.510571   1.91313     -2.136913 
H    -4.444853   1.182695    -0.80351  
H    -4.319041   2.944986    -0.953758 
