62                                     
                                       
C    -1.43749    3.910558    -0.902972 
C    -1.839012   2.652276    -1.340608 
C    -1.064657   1.540561    -1.013502 
C    0.115014    1.646948    -0.250287 
C    0.469646    2.9124      0.209097  
C    -0.292607   4.037152    -0.119824 
O    0.386441    -0.154432   1.907733  
N    -0.635895   -0.74713    -0.761525 
C    -1.485363   0.15714     -1.237921 
Co   0.97857     -0.047767   0.092357  
C    2.359262    -0.268937   -1.495799 
C    2.883254    0.715674    -0.606028 
C    3.021925    0.11498     0.669558  
C    2.709109    -1.287759   0.537188  
C    2.332307    -1.522816   -0.797658 
C    2.016943    -0.066435   -2.940991 
C    3.256954    2.109208    -1.00484  
C    3.446182    0.754835    1.956206  
C    2.742032    -2.252628   1.682365  
C    1.942523    -2.820939   -1.437592 
H    2.483569    2.580138    -1.616336 
H    3.431562    2.748707    -0.13721  
H    4.184602    2.077516    -1.587886 
H    3.521858    1.84071     1.857098  
H    2.712545    0.539281    2.739965  
H    4.422372    0.378398    2.282083  
H    2.065721    -1.914567   2.47571   
H    2.438251    -3.257139   1.374814  
H    3.750876    -2.323681   2.103095  
H    -3.050047   0.882156    0.877899  
C    -0.826948   -0.191623   2.351945  
O    -1.843488   -0.384171   1.681984  
H    1.194487    -0.723175   -3.241207 
H    1.696005    0.962868    -3.124725 
H    2.873274    -0.2767     -3.592653 
H    1.888021    -3.63356    -0.709092 
H    0.972451    -2.743879   -1.941041 
H    2.683626    -3.101134   -2.194257 
H    -2.033063   4.785046    -1.145245 
H    1.345969    3.036395    0.842909  
C    -0.928319   0.033891    3.852294  
H    -0.74723    1.09311     4.059495  
H    -1.922245   -0.23667    4.208648  
H    -0.161875   -0.540307   4.378007  
C    -2.517802   -1.787228   -1.273804 
C    -2.687469   -0.461754   -1.623418 
H    -3.582386   0.007244    -2.001059 
O    -3.940541   1.138184    0.57582   
C    -4.787189   0.097635    0.994379  
H    -4.77063    -0.041048   2.083735  
H    -5.806784   0.359142    0.694488  
H    -4.52238    -0.8676     0.534379  
H    -2.767218   2.52834     -1.891062 
H    0.002843    5.01537     0.2499    
C    -0.883857   -2.987318   0.166378  
H    -1.695216   -3.132915   0.883692  
H    -0.66302    -3.923901   -0.353642 
H    0.005909    -2.643189   0.696108  
N    -3.398449   -2.86461    -1.260596 
H    -4.298456   -2.617909   -1.65407  
H    -3.035067   -3.698144   -1.71163  
N    -1.269318   -1.942656   -0.764142 
