72                                     
                                       
C    -3.226434   -1.768865   -0.0431   
C    -2.030219   -2.466466   -0.044163 
C    -0.836516   -1.72776    -0.056483 
C    -0.767715   -0.32877    -0.071618 
C    -1.993845   0.342901    -0.023096 
C    -3.193705   -0.354536   -0.007906 
O    1.352046    0.675578    1.654891  
N    1.534925    -1.597151   0.135515  
C    0.466897    -2.327311   0.133469  
Co   1.063957    0.335224    -0.200438 
C    1.053747    0.645957    -2.29519  
C    0.539545    1.833834    -1.670022 
C    1.545593    2.340461    -0.821673 
C    2.716148    1.512647    -0.960292 
C    2.420908    0.51534     -1.918868 
C    0.328076    -0.20843    -3.290803 
C    -0.77003    2.47959     -1.995065 
C    1.474812    3.568164    0.032745  
C    3.996037    1.747999    -0.215651 
C    3.333882    -0.526228   -2.487279 
H    -1.514906   1.738205    -2.296028 
H    -1.178443   3.056554    -1.16051  
H    -0.620403   3.161678    -2.841257 
H    0.445032    3.898238    0.182774  
H    1.917649    3.384911    1.016593  
H    2.036887    4.382035    -0.441145 
H    3.838087    1.648778    0.864764  
H    4.773248    1.039345    -0.51455  
H    4.3779      2.757216    -0.405094 
H    -1.509551   3.242249    1.254771  
C    0.561604    1.412927    2.362045  
O    -0.403528   2.037936    1.93061   
H    0.730242    -1.226385   -3.302683 
H    -0.734968   -0.278865   -3.042894 
H    0.4152      0.197868    -4.305439 
H    2.410869    -4.236649   -0.340394 
H    4.316554    -0.514569   -2.012135 
C    2.580282    -2.38578    0.836337  
H    -1.995218   -3.549815   -0.011102 
H    2.911419    -1.530273   -2.38013  
H    3.475586    -0.340332   -3.557814 
C    2.04082     -3.806824   0.598293  
H    -2.044356   1.425683    0.045062  
C    0.929854    1.464104    3.835496  
H    0.23138     2.099317    4.379322  
H    0.916075    0.452345    4.25074   
H    1.947823    1.848819    3.945776  
H    2.218409    -4.494857   1.425912  
O    0.617953    -3.614059   0.470664  
O    -2.071334   3.82668     0.711967  
C    -3.404858   3.684379    1.152791  
H    -3.780114   2.660207    1.022642  
H    -3.520276   3.968751    2.207383  
H    -4.022192   4.356788    0.550934  
O    -4.373242   0.332189    0.092238  
C    -5.08002    0.433794    -1.134851 
H    -5.347878   -0.556734   -1.516374 
H    -5.986228   1.003028    -0.923792 
H    -4.478271   0.968551    -1.880404 
C    2.542951    -2.037168   2.32919   
H    2.778951    -0.982206   2.476336  
H    1.542012    -2.213288   2.73717   
H    3.261457    -2.661182   2.872068  
C    3.97953     -2.184623   0.281835  
H    4.701952    -2.745388   0.88339   
H    4.058158    -2.52008    -0.754334 
H    4.247364    -1.124496   0.332912  
O    -4.465129   -2.331972   -0.040595 
C    -4.521341   -3.739552   -0.004868 
H    -4.041675   -4.132791   0.899802  
H    -5.579149   -4.001899   0.00174   
H    -4.040089   -4.18126    -0.886626 
