60                                     
                                       
C    -1.099752   3.690572    1.187906  
C    0.186324    3.554661    0.68806   
C    0.644421    2.276223    0.348578  
C    -0.140078   1.119458    0.504194  
C    -1.441965   1.290135    0.976592  
C    -1.911624   2.559435    1.315983  
C    0.390753    -2.615843   0.290924  
N    2.185632    0.760727    -0.596713 
C    1.940165    2.057044    -0.284701 
Co   0.779777    -0.503226   0.000746  
C    -1.549111   -1.92072    1.868994  
C    -0.380107   -3.482809   -0.654863 
C    2.703647    -3.046387   -0.785912 
C    3.527169    -1.042248   1.644075  
H    -1.72646    -1.166349   2.638881  
H    -2.263003   -1.743133   1.06108   
H    -1.756858   -2.901506   2.312136  
H    -1.453989   -3.341808   -0.528954 
H    -0.128954   -3.24587    -1.69446  
H    -0.134445   -4.5373     -0.482698 
H    2.378121    -2.847149   -1.813621 
H    3.737923    -2.70549    -0.681534 
H    2.710145    -4.134069   -0.652809 
H    4.224433    -1.169884   0.811304  
H    3.52249     0.018895    1.912482  
H    3.927982    -1.598749   2.498152  
H    1.703613    0.394023    3.262507  
H    -0.051079   0.234835    3.252381  
H    0.939775    -0.943391   4.135611  
C    -1.144779   -0.580836   -1.99608  
O    -1.957742   -0.910028   -1.117235 
H    -3.522188   -0.467377   -1.220651 
O    -4.450771   -0.096181   -1.317113 
O    0.116292    -0.459806   -1.796081 
H    -1.479233   4.670857    1.459065  
H    -2.123151   0.449741    1.053552  
C    -1.624975   -0.338297   -3.412445 
H    -1.860471   -1.303133   -3.872406 
H    -2.546819   0.247945    -3.386614 
H    -0.866793   0.168808    -4.008319 
C    0.966645    -1.189287   2.003611  
C    2.15129     -1.532686   1.30092   
C    0.884228    -0.329849   3.229264  
C    1.797117    -2.392949   0.216548  
C    -4.944934   0.169098    -0.114424 
O    -4.362886   -0.048111   0.928105  
C    -6.326155   0.774109    -0.193802 
H    -6.283553   1.708776    -0.759201 
H    -6.99392    0.096037    -0.731294 
H    -6.705287   0.958934    0.810124  
C    -0.133863   -1.875919   1.378308  
C    3.287393    0.466446    -1.283929 
C    3.889476    2.746808    -1.228425 
C    4.196819    1.450653    -1.637319 
H    3.426557    -0.57756    -1.550612 
H    4.563048    3.572731    -1.447041 
H    5.094606    1.22046     -2.196237 
H    0.834948    4.413096    0.54088   
H    -2.932246   2.659627    1.676537  
N    2.77766     3.05745     -0.570733 
