60                                     
                                       
C    -3.016533   1.291906    2.142441  
C    -2.160703   2.128686    1.444666  
C    -1.009644   1.593407    0.854446  
C    -0.686079   0.225086    0.93294   
C    -1.58086    -0.594718   1.622294  
C    -2.723007   -0.071282   2.225543  
C    2.150231    -2.026037   -0.215638 
N    0.969292    1.694324    -0.425601 
C    -0.087339   2.389972    0.052117  
Co   0.955481    -0.238451   0.014549  
C    0.629829    -3.13814    1.553532  
C    1.944186    -3.023064   -1.312516 
C    3.877513    -0.564889   -1.466176 
C    3.61208     1.070312    1.337993  
H    0.210821    -2.894828   2.532784  
H    -0.191571   -3.331955   0.857771  
H    1.214972    -4.057815   1.665489  
H    0.980608    -3.525351   -1.203468 
H    1.960042    -2.532825   -2.290569 
H    2.739545    -3.777341   -1.297094 
H    3.300452    -0.46325    -2.392494 
H    4.441122    0.359292    -1.311017 
H    4.609       -1.364876   -1.623961 
H    4.013308    1.593272    0.465776  
H    2.950964    1.765428    1.864691  
H    4.452551    0.842244    2.002428  
H    1.686388    0.552647    3.354815  
H    0.565348    -0.804679   3.405981  
H    2.255691    -1.033859   3.895996  
C    -0.818916   -1.33489    -1.838833 
O    -1.174985   -2.152952   -0.97299  
H    -2.82913    -1.971876   -0.679671 
O    -3.763756   -1.732735   -0.423426 
O    0.129672    -0.483655   -1.682139 
H    -3.912795   1.690432    2.607881  
H    -1.418674   -1.666332   1.659516  
C    -1.475196   -1.303521   -3.201655 
H    -2.2948     -2.021755   -3.243858 
H    -1.852204   -0.29693    -3.388426 
H    -0.732502   -1.545312   -3.967832 
C    1.96694     -0.881838   1.775431  
C    2.89184     -0.188255   0.952334  
C    1.597671    -0.523812   3.183292  
C    2.993999    -0.88295    -0.294348 
C    -3.949589   -0.43623    -0.660349 
O    -3.136586   0.283732    -1.199593 
C    -5.309446   0.028893    -0.199187 
H    -6.082832   -0.451159   -0.805942 
H    -5.470376   -0.26897    0.839646  
H    -5.376837   1.111507    -0.299176 
C    1.506049    -2.0333     1.045613  
C    -0.202387   3.743649    -0.278351 
C    1.83989     2.311695    -1.226055 
C    0.774292    4.290865    -1.089931 
H    -1.033083   4.34001     0.077211  
H    2.646297    1.701637    -1.621659 
H    0.736235    5.339494    -1.374636 
H    -2.392732   3.186704    1.356371  
H    -3.404705   -0.73819    2.747536  
N    1.803168    3.585448    -1.580021 
