62                                     
                                       
C    -0.89642    3.921535    1.033856  
C    0.453345    3.65399     0.830888  
C    0.830399    2.350673    0.530694  
C    -0.053126   1.282894    0.453215  
C    -1.405449   1.591303    0.636324  
C    -1.826587   2.890753    0.917742  
C    0.383473    -2.455783   0.975919  
N    1.974114    0.368403    -1.101887 
O    2.222452    2.174222    0.325545  
Co   0.664933    -0.469504   0.121812  
C    2.525819    -3.138733   -0.323801 
C    3.66635     -0.672631   1.352483  
H    -1.51445    -0.219963   2.779482  
H    -2.11196    -1.668231   1.977367  
H    -1.2975     -1.796547   3.557812  
H    -1.519683   -3.434895   0.77107   
H    -0.522717   -3.48919    -0.678718 
H    -0.105302   -4.514269   0.70558   
H    1.8857      -3.528476   -1.121918 
H    3.34895     -2.588635   -0.791278 
H    2.961789    -3.999032   0.197544  
H    4.099684    -0.757171   0.349747  
H    3.726442    0.375508    1.657581  
H    4.293987    -1.258565   2.032942  
H    2.06573     1.17677     2.892278  
H    0.342958    1.010754    3.224169  
H    1.517402    0.068937    4.164438  
H    -1.217044   4.93347     1.261394  
H    -2.155256   0.811648    0.545746  
C    -1.684506   -0.96499    -1.387471 
O    -2.302622   -1.299405   -0.361633 
H    -3.918995   -1.14623    -0.433857 
O    -4.918622   -1.031261   -0.483657 
O    -0.41778    -0.771539   -1.434143 
C    -2.440419   -0.714801   -2.673327 
H    -3.257417   -1.431495   -2.779792 
H    -2.879238   0.286021    -2.590546 
H    -1.778068   -0.748907   -3.5381   
C    1.197551    -0.660444   2.177803  
C    2.253111    -1.173579   1.386598  
C    1.28602     0.461161    3.167575  
C    1.745543    -2.273557   0.620132  
C    -5.195384   0.263979    -0.568932 
O    -4.354758   1.138736    -0.611113 
C    -6.682297   0.523138    -0.611585 
H    -7.123172   -0.007517   -1.459401 
H    -7.147666   0.132052    0.296949  
H    -6.867374   1.592674    -0.698528 
C    0.01784     -1.44007    1.903003  
C    3.750459    1.932208    -1.441827 
H    1.209063    4.431192    0.886632  
H    -2.888208   3.086883    1.031819  
C    4.172799    1.220015    -2.547299 
C    -1.301549   -1.276508   2.592799  
C    -0.494888   -3.532059   0.414894  
C    2.623464    1.477518    -0.747152 
C    2.362841    -0.297143   -2.20533  
C    3.457368    0.08839     -2.953472 
H    1.750515    -1.155403   -2.461694 
H    3.743209    -0.479335   -3.830453 
H    5.041009    1.551984    -3.107726 
H    4.241735    2.834178    -1.098603 
