64                                     
                                       
C    -1.796298   3.177029    1.167855  
C    -0.513573   3.333953    0.670257  
C    0.233156    2.202668    0.32002   
C    -0.278554   0.903214    0.494017  
C    -1.585066   0.782109    0.962796  
C    -2.356648   1.899692    1.293569  
C    1.124721    -2.612224   0.392426  
N    2.02301     1.05232     -0.690374 
C    1.530669    2.266077    -0.356142 
Co   0.975945    -0.476656   -0.001607 
C    -0.857214   -2.315005   2.043234  
C    0.557346    -3.689238   -0.478589 
C    3.429509    -2.541587   -0.776094 
C    3.843742    -0.271483   1.522696  
H    -1.21373    -1.537408   2.72323   
H    -1.597587   -2.443283   1.250005  
H    -0.789188   -3.248661   2.613433  
H    -0.501454   -3.847004   -0.273003 
H    0.655232    -3.426142   -1.537139 
H    1.099062    -4.628082   -0.313437 
H    3.024547    -2.491892   -1.793532 
H    4.352406    -1.955417   -0.746224 
H    3.704924    -3.585373   -0.587005 
H    4.525422    -0.286822   0.66822   
H    3.597653    0.775254    1.72824   
H    4.387565    -0.662484   2.389487  
H    1.803177    0.768956    3.170634  
H    0.133047    0.214053    3.246239  
H    1.397968    -0.6596     4.134643  
C    -0.978978   -1.077241   -1.867265 
O    -1.603822   -1.629711   -0.943991 
H    -3.191892   -1.49177    -0.71424  
O    -4.147747   -1.409927   -0.408104 
O    0.227914    -0.657077   -1.752933 
H    -2.386592   4.050614    1.432684  
H    -2.044053   -0.199883   1.035455  
C    -1.647613   -0.855707   -3.20291  
H    -2.180761   -1.76138    -3.501502 
H    -2.388968   -0.062449   -3.060727 
H    -0.928149   -0.563157   -3.967227 
C    1.409334    -1.002467   2.014441  
C    2.612372    -1.089988   1.267388  
C    1.171893    -0.123662   3.205728  
C    2.431514    -2.06409    0.238447  
C    -4.615737   -0.218878   -0.760471 
O    -3.969676   0.622988    -1.348755 
C    -6.056397   -0.034321   -0.344206 
H    -6.675393   -0.794335   -0.828637 
H    -6.151877   -0.173789   0.73592   
H    -6.397092   0.960779    -0.627919 
C    0.482575    -1.962158   1.473727  
C    2.223712    3.426147    -0.722163 
C    3.136319    0.951096    -1.42061  
C    3.395009    3.319359    -1.453452 
H    1.832002    4.397247    -0.443612 
C    3.860693    2.059382    -1.82852  
H    3.440674    -0.057159   -1.68387  
H    3.93756     4.213538    -1.744539 
H    4.758727    1.936087    -2.421711 
H    -0.109304   4.334533    0.538694  
C    -3.786744   1.740336    1.736608  
H    -4.463119   2.094904    0.95083   
H    -4.020018   0.689091    1.931695  
H    -3.994171   2.316244    2.64448   
