60                                     
                                       
C    -3.039243   1.402528    2.033415  
C    -2.233218   2.203456    1.236967  
C    -1.057077   1.652734    0.728344  
C    -0.645008   0.325192    0.949621  
C    -1.49275    -0.455198   1.736223  
C    -2.663233   0.078926    2.277955  
C    2.292641    -1.837877   -0.196735 
N    0.954482    1.783559    -0.509074 
C    -0.14876    2.352691    -0.15878  
Co   1.014702    -0.115438   0.015159  
C    0.87286     -2.959447   1.656114  
C    2.101863    -2.88195    -1.252041 
C    3.815241    -0.262585   -1.580043 
C    3.600137    1.396734    1.211201  
H    0.496421    -2.705238   2.650195  
H    0.022965    -3.18584    1.005875  
H    1.485956    -3.861901   1.757778  
H    1.17224     -3.431311   -1.088191 
H    2.054045    -2.427195   -2.246065 
H    2.937614    -3.591056   -1.242904 
H    3.182913    -0.343514   -2.470836 
H    4.183206    0.765484    -1.525622 
H    4.68323     -0.914474   -1.728427 
H    4.083537    1.83143     0.332694  
H    2.864061    2.118211    1.579645  
H    4.367551    1.274912    1.98309   
H    1.840471    0.827955    3.309426  
H    0.744985    -0.547531   3.425327  
H    2.449979    -0.733218   3.880966  
C    -0.752744   -1.381928   -1.736937 
O    -1.039092   -2.175631   -0.823819 
H    -2.685846   -2.083238   -0.483967 
O    -3.627783   -1.883461   -0.219452 
O    0.148042    -0.471457   -1.648106 
H    -3.961064   1.795303    2.451467  
H    -1.271105   -1.504583   1.905506  
C    -1.433832   -1.470348   -3.085646 
H    -2.272599   -2.1658     -3.039794 
H    -1.78596    -0.480975   -3.37922  
H    -0.71048    -1.820803   -3.8291   
C    2.11076     -0.642154   1.764197  
C    2.961929    0.077506    0.889319  
C    1.766482    -0.254317   3.170413  
C    3.05447     -0.644077   -0.34402  
C    -3.899513   -0.624159   -0.553658 
O    -3.146446   0.095252    -1.174642 
C    -5.274042   -0.204105   -0.092709 
H    -6.030533   -0.771909   -0.642504 
H    -5.394713   -0.431305   0.969112  
H    -5.406949   0.862295    -0.271069 
C    1.690112    -1.839469   1.086     
C    1.56035     2.574335    -1.572319 
C    0.736745    3.879734    -1.516488 
H    2.623764    2.747281    -1.385826 
H    1.271762    4.693652    -1.020317 
H    -2.506151   3.228118    1.001601  
H    -3.306751   -0.555882   2.882456  
H    1.452059    2.041344    -2.523608 
H    0.36807     4.216866    -2.484896 
O    -0.406724   3.543737    -0.699098 
