63                                     
                                       
C    1.866941    3.074032    0.011994  
C    0.550508    3.28827     0.3894    
C    -0.341696   2.219311    0.299605  
C    0.006178    0.928931    -0.144009 
C    1.347546    0.735755    -0.483259 
C    2.249665    1.799933    -0.413338 
H    -0.000489   0.466879    -3.071211 
N    -2.490047   1.263269    0.55766   
C    -1.72855    2.286751    0.729204  
Co   -1.504733   -0.320031   -0.088421 
C    -1.603336   -0.657928   -2.179213 
C    -0.903115   -1.754765   -1.560767 
C    -1.800682   -2.3759     -0.659137 
C    -3.041374   -1.669052   -0.68406  
C    -2.92386    -0.636158   -1.664649 
C    -1.059038   0.252411    -3.2386   
C    0.476255    -2.232444   -1.895489 
C    -1.506901   -3.553903   0.216065  
C    -4.237131   -2.014334   0.153477  
C    -3.979569   0.351861    -2.066065 
H    1.005565    -1.513341   -2.525698 
H    1.081695    -2.390415   -0.999773 
H    0.418606    -3.175388   -2.45128  
H    -0.437287   -3.765285   0.239426  
H    -1.837659   -3.368879   1.243693  
H    -2.039046   -4.437993   -0.153317 
H    -3.946396   -2.184661   1.195341  
H    -4.982523   -1.214108   0.143745  
H    -4.726414   -2.925535   -0.208627 
C    -0.079302   -1.300302   2.078451  
O    0.736647    -1.737347   1.253643  
H    2.356748    -1.863698   1.559731  
H    -1.592722   1.207332    -3.249521 
O    -1.186171   -0.73193    1.759775  
H    -1.162217   -0.202708   -4.230193 
H    -4.604891   1.278765    0.631274  
H    -4.256538   3.626256    0.975079  
H    -4.899011   0.208598    -1.492788 
C    -3.742176   1.496868    1.266205  
H    0.217562    4.256756    0.750667  
H    -3.644771   1.384534    -1.92131  
H    -4.23076    0.228707    -3.124732 
C    -3.641141   2.996878    1.62276   
H    2.596026    3.87521     0.052034  
H    1.720227    -0.244676   -0.770786 
C    0.185918    -1.462251   3.561612  
H    0.012216    -2.507869   3.834697  
H    1.23444     -1.236481   3.770123  
H    -0.466858   -0.823978   4.156517  
H    -3.853871   3.223334    2.667165  
H    -3.782752   0.847419    2.147569  
O    -2.256236   3.330393    1.369734  
O    3.341499    -1.823517   1.73039   
C    3.967952    -1.789345   0.559335  
O    3.399561    -1.832819   -0.512275 
C    5.466176    -1.716538   0.711534  
H    5.915438    -1.486483   -0.253548 
H    5.728771    -0.95369    1.446544  
H    5.838927    -2.678973   1.074236  
C    3.69472     1.54731     -0.749796 
F    3.835412    0.724757    -1.791049 
F    4.349656    0.992495    0.288389  
F    4.344909    2.686942    -1.045007 
