62                                     
                                       
C    1.343997    3.660293    -0.466865 
C    0.03787     3.604001    0.001429  
C    -0.558487   2.353285    0.116572  
C    0.069413    1.154339    -0.226821 
C    1.391169    1.256897    -0.661057 
C    2.040517    2.491174    -0.78975  
H    -3.06176    0.971169    -2.33632  
N    -2.314613   0.935857    0.753905  
N    -1.873205   2.197213    0.64885   
Co   -1.055789   -0.407631   0.030421  
C    -2.357747   -0.910012   -1.568548 
C    -1.025362   -0.917881   -2.049236 
C    -0.287673   -1.898883   -1.310821 
C    -1.194511   -2.521717   -0.403615 
C    -2.466241   -1.914254   -0.543684 
C    -3.453828   -0.013049   -2.061984 
C    -0.473413   -0.079587   -3.160848 
C    1.114591    -2.335722   -1.609309 
C    -0.845726   -3.587828   0.588394  
C    -3.703202   -2.304952   0.211989  
H    -0.913299   0.921525    -3.171421 
H    0.608435    0.035189    -3.060955 
H    -0.679749   -0.553509   -4.127518 
H    1.831467    -1.512632   -1.622318 
H    1.471419    -3.040369   -0.857515 
H    1.139389    -2.829593   -2.588291 
H    0.199787    -3.500082   0.892231  
H    -1.46889    -3.51068    1.48374   
H    -0.998237   -4.582133   0.15343   
C    0.805486    -1.010322   2.001507  
O    1.565403    -1.379564   1.08972   
H    3.159926    -1.205731   1.193005  
H    -4.222985   0.142761    -1.300736 
O    -0.412561   -0.66216    1.81821   
H    -3.9366     -0.440029   -2.947911 
H    -3.528353   -2.332971   1.293264  
C    -3.504429   0.991581    1.344021  
H    -0.489429   4.514309    0.27256   
H    -4.525475   -1.611321   0.016385  
H    -4.042515   -3.301995   -0.089686 
H    1.83454     4.624857    -0.570086 
H    1.958589    0.356262    -0.882651 
C    1.294763    -1.00131    3.43557   
H    2.327286    -0.645729   3.467059  
H    0.65664     -0.382977   4.06626   
H    1.284004    -2.027887   3.815338  
H    -4.73766    2.694718    2.09385   
H    -4.050862   0.082293    1.54691   
C    -3.842289   2.323247    1.621515  
C    -2.766712   3.063296    1.162987  
H    -2.57426    4.124754    1.174103  
O    4.135566    -0.975706   1.301547  
C    4.652511    -0.662536   0.123621  
O    4.044097    -0.70783    -0.927514 
C    6.093388    -0.22506    0.233692  
H    6.674737    -0.985958   0.759943  
H    6.503293    -0.05335    -0.760596 
H    6.146088    0.694694    0.823235  
C    3.476217    2.563381    -1.248026 
H    3.605678    3.326606    -2.022434 
H    4.135609    2.833429    -0.41422  
H    3.81237     1.600702    -1.639423 
