64                                     
                                       
C    -2.775089   1.289248    1.569102  
C    -1.639988   2.078934    1.472814  
C    -0.454809   1.527004    0.976765  
C    -0.373707   0.191876    0.543554  
C    -1.53823    -0.569788   0.613256  
C    -2.712734   -0.036427   1.139283  
C    2.339033    -2.192695   -0.616424 
N    1.824181    1.558822    0.369284  
C    0.78481     2.296986    0.814295  
Co   1.396133    -0.337947   -0.022856 
C    0.147618    -3.3933     0.036521  
C    2.403372    -2.66874    -2.033687 
C    4.585658    -0.91212    -0.620684 
C    3.547565    -0.304831   2.400966  
H    -0.551725   -3.418672   0.875699  
H    -0.397446   -3.097313   -0.864812 
H    0.525698    -4.411724   -0.106181 
H    1.402605    -2.886854   -2.413149 
H    2.851259    -1.908546   -2.680375 
H    3.011541    -3.578089   -2.104172 
H    4.40766     -0.378931   -1.561796 
H    5.16071     -0.258494   0.041394  
H    5.220534    -1.774744   -0.850589 
H    4.257038    0.400493    1.959627  
H    2.834498    0.274191    2.995445  
H    4.105071    -0.952734   3.086153  
H    0.905243    -0.911919   3.368767  
H    -0.249508   -1.994203   2.59777   
H    1.163222    -2.662627   3.435618  
C    0.258102    -0.231559   -2.566338 
O    -0.519601   -1.139745   -2.226695 
H    -2.115498   -0.547098   -2.294895 
O    -3.019195   -0.138097   -2.201112 
O    1.210256    0.21896     -1.831831 
H    -3.697059   1.687473    1.979336  
H    -1.551212   -1.589437   0.245987  
C    0.133422    0.433751    -3.919168 
H    -0.542951   -0.133566   -4.559528 
H    -0.269062   1.436955    -3.757762 
H    1.115603    0.525078    -4.388527 
C    1.608304    -1.785683   1.529762  
C    2.850753    -1.122359   1.353935  
C    0.813443    -1.841571   2.799617  
C    3.300994    -1.357116   0.016271  
C    -2.879213   1.146807    -1.88933  
O    -1.811179   1.720603    -1.826444 
C    -4.208603   1.818289    -1.64938  
H    -4.762435   1.86684     -2.591725 
H    -4.799821   1.226302    -0.948708 
H    -4.043621   2.824549    -1.265852 
C    1.289514    -2.456832   0.297546  
C    0.939373    3.667048    1.043086  
C    2.997285    2.141247    0.108283  
C    2.164567    4.2655      0.797605  
H    0.098349    4.25345     1.392792  
C    3.218969    3.493575    0.31408   
H    3.772719    1.494148    -0.28739  
H    2.295257    5.329474    0.968302  
H    4.187039    3.925938    0.09141   
H    -1.684632   3.115236    1.794948  
C    -3.933736   -0.9069     1.227389  
F    -4.658437   -0.894686   0.097875  
F    -3.609229   -2.188302   1.464386  
F    -4.754134   -0.512366   2.216436  
