68                                     
                                       
C    3.550686    -0.24029    -1.2937   
C    2.493186    0.625695    -1.55275  
C    1.227171    0.339361    -1.049532 
C    0.961354    -0.835222   -0.303437 
C    2.034776    -1.656238   -0.011871 
C    3.322255    -1.366496   -0.494863 
H    -0.102179   -1.905515   -3.103015 
N    -1.012954   0.831177    -0.498143 
C    0.101297    1.249192    -1.055454 
Co   -0.917957   -1.033838   0.123911  
C    -1.585476   -2.11915    -1.56277  
C    -0.946057   -3.04485    -0.677536 
C    -1.628583   -2.999151   0.558805  
C    -2.773451   -2.133134   0.407106  
C    -2.765141   -1.634026   -0.909945 
C    -1.185713   -1.823887   -2.977237 
C    0.185468    -3.947368   -1.056657 
C    -1.290744   -3.716387   1.829412  
C    -3.743343   -1.84901    1.513224  
C    -3.776021   -0.751936   -1.578269 
H    0.924425    -3.437598   -1.67865  
H    0.70222     -4.348225   -0.182006 
H    -0.213401   -4.795564   -1.62518  
H    -0.30254    -4.180039   1.776627  
H    -1.286848   -3.01092    2.666155  
H    -2.022518   -4.503812   2.042244  
H    -3.233641   -1.345907   2.343399  
H    -4.56811    -1.215658   1.175286  
H    -4.175995   -2.778935   1.89761   
C    -0.137488   0.35697     2.497295  
O    0.457784    1.232378    1.863345  
H    2.122948    1.451975    1.689671  
H    -1.471926   -0.805348   -3.258257 
O    -0.813592   -0.612212   1.981746  
H    -1.663128   -2.513039   -3.683788 
H    -4.559888   -0.429762   -0.889914 
C    -1.930882   1.847118    -0.32289  
H    2.674435    1.541486    -2.109248 
H    -3.317723   0.1457      -2.004874 
H    -4.252289   -1.301887   -2.397659 
H    4.535178    -0.019082   -1.688191 
H    1.926652    -2.551804   0.594804  
C    -0.105077   0.346423    4.015562  
H    0.259834    1.302104    4.391199  
H    -1.098091   0.13102     4.415829  
H    0.567077    -0.451047   4.347472  
C    -1.518574   3.073579    -0.870897 
C    -3.147756   1.755554    0.360108  
C    -2.331647   4.204326    -0.80156  
C    -3.949031   2.882192    0.437109  
H    -4.89438    2.831237    0.967472  
C    -3.551446   4.093725    -0.149918 
H    -3.428361   0.817328    0.828905  
H    -4.197318   4.962448    -0.076951 
H    -2.009581   5.148049    -1.228939 
O    2.830044    3.07366     0.130274  
C    3.548128    2.354228    0.790035  
O    3.116751    1.445662    1.655669  
C    5.05662     2.379062    0.722565  
H    5.464864    2.655919    1.69823   
H    5.42253     1.376119    0.485504  
H    5.38083     3.091944    -0.034424 
S    0.0952      2.9187      -1.517557 
O    4.285718    -2.254444   -0.147242 
C    5.602479    -2.003941   -0.58506  
H    5.974537    -1.046666   -0.200416 
H    6.213033    -2.814816   -0.188261 
H    5.666098    -2.001902   -1.679899 
