64                                     
                                       
C    -0.747011   3.700864    0.95774   
C    0.541502    3.455942    0.485242  
C    0.876949    2.12243     0.149839  
C    -0.04659    1.068877    0.340998  
C    -1.335559   1.367912    0.774481  
C    -1.686074   2.680319    1.075752  
C    0.069142    -2.700242   0.601324  
N    2.160772    0.339708    -0.715586 
C    2.127747    1.678708    -0.498987 
Co   0.665281    -0.687924   0.023362  
C    -1.75543    -1.614184   2.092011  
C    -0.802531   -3.607879   -0.209536 
C    2.302392    -3.521761   -0.411963 
C    3.377697    -1.293366   1.702979  
H    -1.850261   -0.731009   2.727856  
H    -2.471517   -1.509113   1.273128  
H    -2.035155   -2.487648   2.692493  
H    -1.855738   -3.353626   -0.087824 
H    -0.560067   -3.533698   -1.27534  
H    -0.647617   -4.649218   0.096692  
H    1.961952    -3.457782   -1.452209 
H    3.365138    -3.264385   -0.383989 
H    2.217226    -4.571093   -0.10728  
H    4.038638    -1.607376   0.890462  
H    3.48599     -0.209675   1.814787  
H    3.738931    -1.760852   2.625446  
H    1.744245    0.528066    3.122375  
H    -0.017513   0.549633    3.154122  
H    0.872881    -0.592942   4.180349  
C    -1.291363   -0.857841   -1.940542 
O    -2.118475   -0.995114   -1.023716 
H    -3.651696   -0.491425   -1.186162 
O    -4.56736    -0.09956    -1.326815 
O    -0.023235   -0.817337   -1.761852 
H    -1.019376   4.71934     1.222443  
H    -2.088938   0.593425    0.857418  
C    -1.765031   -0.779599   -3.37799  
H    -1.975951   -1.79414    -3.731312 
H    -2.695255   -0.209263   -3.428344 
H    -1.00552    -0.333035   -4.019317 
C    0.822557    -1.126718   2.100857  
C    1.952127    -1.682283   1.442364  
C    0.855956    -0.106025   3.198644  
C    1.489618    -2.63883    0.489611  
C    -5.002182   0.421961    -0.186868 
O    -4.389627   0.387641    0.860251  
C    -6.360242   1.063899    -0.343142 
H    -6.305669   1.85806     -1.092339 
H    -7.077147   0.321806    -0.703794 
H    -6.687826   1.469964    0.612665  
C    -0.354285   -1.775023   1.58513   
C    3.198364    2.457161    -0.964689 
C    3.152283    -0.229492   -1.400998 
C    4.245678    1.860527    -1.651958 
H    3.211343    3.523646    -0.810207 
C    4.228226    0.491273    -1.893612 
H    3.063423    -1.299771   -1.558773 
H    5.067626    2.471898    -2.01172  
H    5.015417    -0.006538   -2.446761 
H    -2.696689   2.898676    1.410433  
C    1.476448    4.637504    0.375669  
H    2.43086     4.46025     0.882252  
H    1.689796    4.90054     -0.666838 
H    1.017707    5.513422    0.840527  
