63                                     
                                       
C    -0.480236   3.678294    1.124015  
C    0.76163     3.269405    0.602717  
C    0.924213    1.898705    0.31135   
C    -0.076079   0.922426    0.510323  
C    -1.295229   1.378453    0.983286  
C    -1.485249   2.743315    1.292684  
C    -0.233102   -2.837796   0.294228  
N    2.191339    0.136989    -0.59777  
C    2.139362    1.458278    -0.296157 
Co   0.553103    -0.842091   0.005045  
C    -1.990626   -1.771575   1.880667  
C    -1.162721   -3.535833   -0.648618 
C    1.945715    -3.695342   -0.807044 
C    3.156311    -1.910693   1.638196  
H    -2.008516   -0.997838   2.651702  
H    -2.6563     -1.451761   1.075298  
H    -2.391117   -2.690382   2.324336  
H    -2.187653   -3.187065   -0.518647 
H    -0.873051   -3.352427   -1.689039 
H    -1.128178   -4.618151   -0.477252 
H    1.674861    -3.407513   -1.829441 
H    3.027337    -3.578061   -0.694553 
H    1.724842    -4.763208   -0.699217 
H    3.81624     -2.214537   0.821643  
H    3.369798    -0.860784   1.862259  
H    3.425808    -2.501283   2.520514  
H    1.664344    -0.152497   3.259319  
H    -0.087835   0.039302    3.26143   
H    0.656195    -1.313073   4.137455  
C    -1.362151   -0.554209   -1.983103 
O    -2.220322   -0.704172   -1.098097 
H    -3.700251   -0.055876   -1.213551 
O    -4.583784   0.415394    -1.309783 
O    -0.1011     -0.675861   -1.787072 
H    -0.645048   4.724992    1.365757  
H    -2.142644   0.709259    1.092151  
C    -1.787306   -0.258706   -3.407277 
H    -2.073674   -1.200096   -3.887432 
H    -2.662846   0.394174    -3.403265 
H    -0.973799   0.192414    -3.97502  
C    0.620666    -1.554588   2.00441   
C    1.710886    -2.121112   1.29522   
C    0.717155    -0.699067   3.231688  
C    1.18983     -2.890063   0.209656  
C    -5.012751   0.793902    -0.11302  
O    -4.429076   0.569718    0.927307  
C    -6.324787   1.53744     -0.194106 
H    -6.205659   2.423226    -0.823453 
H    -7.078163   0.900308    -0.664497 
H    -6.647145   1.825874    0.805222  
C    -0.597086   -2.011629   1.38483   
C    3.185032    2.350018    -0.60443  
C    3.24963     -0.337038   -1.238112 
C    4.309954    1.816903    -1.256059 
C    4.33914     0.474328    -1.583796 
H    3.230916    -1.393675   -1.488296 
H    5.142726    2.467164    -1.511433 
H    5.184656    0.039231    -2.103471 
H    -2.457629   3.056787    1.663381  
C    3.010995    3.733853    -0.250103 
C    1.855515    4.165093    0.322764  
H    1.733412    5.217027    0.568779  
H    3.8172      4.428812    -0.466604 
