60                                     
                                       
C    3.681407    -0.644912   -1.134883 
C    2.919348    0.339471    -1.750391 
C    1.585876    0.520366    -1.361655 
C    0.964026    -0.274997   -0.389757 
C    1.770986    -1.228242   0.230014  
C    3.1085      -1.426063   -0.127526 
H    -2.889814   -0.815208   2.644737  
H    3.360197    0.971554    -2.518005 
N    0.896106    1.608192    -1.965362 
Co   -0.907285   -0.121877   0.017173  
C    -2.782918   -1.069426   0.522466  
C    -1.698462   -2.024267   0.417232  
C    -1.23135    -2.007185   -0.92213  
C    -1.902597   -0.941196   -1.596236 
C    -2.920069   -0.422379   -0.712832 
C    -3.869843   0.677588    -1.074076 
C    -3.558152   -0.83178    1.779406  
C    -1.263402   -2.929496   1.530662  
C    -0.221411   -2.921999   -1.539586 
C    -1.704697   -0.531439   -3.024811 
H    -4.534051   0.922541    -0.24354  
H    -3.331923   1.589707    -1.353836 
H    -4.490586   0.377143    -1.923865 
H    -2.001535   0.511251    -3.179337 
H    -0.660069   -0.63984    -3.331976 
H    -2.314611   -1.14661    -3.695007 
H    0.421551    -2.397206   -2.251333 
H    0.419831    -3.391157   -0.790488 
H    -0.747368   -3.717003   -2.079552 
H    1.229946    1.898545    1.680808  
C    -0.481389   1.478319    2.523543  
O    0.512638    2.274915    2.276166  
O    -0.901055   1.728383    -0.570232 
H    -0.375685   -3.506622   1.262366  
O    -0.717656   0.43106     1.905537  
O    2.782162    1.694642    1.204351  
H    3.064724    0.861856    0.795885  
C    -1.331157   1.898339    3.683938  
H    -0.933036   1.422402    4.586233  
H    -1.284832   2.978549    3.820416  
H    -2.357501   1.562363    3.538533  
H    -4.104019   0.113943    1.748243  
H    -4.284453   -1.63711    1.932177  
H    1.366914    2.068702    -2.734768 
C    -0.222372   2.189717    -1.513086 
H    -1.035117   -2.358565   2.436482  
C    -0.671579   3.460365    -2.17414  
H    0.025772    3.821981    -2.930887 
H    -1.648916   3.291391    -2.634994 
H    -0.79956    4.223168    -1.402425 
C    3.891828    -2.500552   0.544426  
O    3.416051    -3.236396   1.373466  
H    4.949847    -2.593579   0.228361  
H    -2.059033   -3.640297   1.776825  
H    4.715134    -0.802543   -1.43149  
H    1.369895    -1.865095   1.016801  
C    3.499968    2.782874    0.638924  
H    3.195789    3.678468    1.181713  
H    4.577686    2.643827    0.760277  
H    3.266421    2.907337    -0.425799 
