67                                     
                                       
C    -1.765707   3.710783    -1.031927 
C    -2.152267   2.42492     -1.390837 
C    -1.35965    1.334859    -1.013787 
C    -0.150194   1.488982    -0.331341 
C    0.192521    2.794649    0.040007  
C    -0.597742   3.896379    -0.28946  
H    3.452335    -0.778593   2.210553  
H    -3.081032   2.267046    -1.935459 
N    -1.908829   0.042552    -1.263237 
Co   0.985809    -0.013934   0.025806  
C    2.974732    -0.851189   0.122352  
C    2.995144    0.552547    -0.221277 
C    2.328336    0.705423    -1.464168 
C    1.766676    -0.563322   -1.811532 
C    2.241938    -1.535601   -0.857064 
C    1.940948    -3.002802   -0.871665 
C    3.612429    -1.428661   1.345796  
C    3.70629     1.603384    0.57745   
C    2.217229    1.95302     -2.282589 
C    0.946145    -0.847827   -3.034042 
H    1.662285    -3.369846   0.120683  
H    1.1227      -3.233402   -1.556345 
H    2.819761    -3.565432   -1.202876 
H    0.257855    -1.68238    -2.866942 
H    0.351493    0.02436     -3.32087  
H    1.585679    -1.112624   -3.88254  
H    1.23119     2.051899    -2.743896 
H    2.394325    2.849138    -1.684983 
H    2.966746    1.923741    -3.081019 
H    -1.429448   0.530213    2.244164  
C    0.210612    -0.302885   2.894283  
O    -1.077512   -0.143125   2.903042  
O    -0.551343   -1.188911   0.077081  
H    3.519       2.604853    0.183884  
O    0.968328    0.105183    2.002943  
O    -2.377109   1.78797     1.785557  
H    -2.000111   2.448862    1.182396  
H    1.016926    -0.239596   4.846591  
H    -0.009011   -1.649179   4.543116  
H    1.647605    -1.562139   3.847842  
H    3.214353    -2.420178   1.576919  
H    4.693067    -1.528677   1.197185  
H    -2.75217    0.02003     -1.822569 
C    -1.585424   -1.087223   -0.625056 
H    3.389594    1.583879    1.625412  
H    -0.301256   4.893864    0.018588  
H    -2.379513   4.558574    -1.316842 
C    -2.542526   -2.272264   -0.68107  
C    -3.135232   -2.389571   0.736952  
C    -3.670269   -2.089409   -1.701015 
C    -1.741431   -3.537708   -1.012825 
H    -2.346095   -2.529983   1.479519  
H    -3.706622   -1.493272   1.0024    
H    -3.812436   -3.24781    0.775062  
H    -3.286947   -1.945254   -2.717846 
H    -4.287699   -2.99118    -1.713605 
H    -4.336441   -1.257836   -1.440951 
H    -2.403482   -4.407175   -0.969952 
H    -1.318473   -3.487957   -2.022541 
H    -0.929864   -3.682868   -0.296927 
H    4.788031    1.435491    0.553392  
H    1.107856    2.958294    0.606321  
C    0.75003     -1.000723   4.106025  
C    -3.756149   1.6064      1.501913  
H    -3.907059   1.156582    0.51143   
H    -4.152904   0.937052    2.266621  
H    -4.29282    2.557957    1.550266  
