65                                     
                                       
C    0.870959    3.482851    -2.47754  
C    -0.244866   2.663586    -2.352728 
C    -0.168523   1.516198    -1.554903 
C    1.003348    1.144355    -0.890796 
C    2.097076    2.005853    -1.018103 
C    2.044011    3.160995    -1.796309 
H    2.865793    -1.810236   2.561822  
H    -1.171483   2.916822    -2.864153 
N    -1.365432   0.763726    -1.387374 
Co   1.055935    -0.492917   0.107407  
C    2.044382    -2.331527   0.650259  
C    2.831474    -1.533516   -0.266347 
C    2.112976    -1.426565   -1.485063 
C    0.832255    -2.025997   -1.280892 
C    0.828545    -2.642683   0.02333   
C    -0.3354     -3.395249   0.59108   
C    2.493672    -2.692132   2.031722  
C    4.204507    -1.014607   0.036092  
C    2.581383    -0.787204   -2.754127 
C    -0.250617   -2.176107   -2.307987 
H    -0.156516   -3.691049   1.626281  
H    -1.248754   -2.790601   0.567991  
H    -0.519351   -4.30289    0.007399  
H    -1.235208   -2.273006   -1.838107 
H    -0.279798   -1.321622   -2.989853 
H    -0.08375    -3.07786    -2.90723  
H    1.764151    -0.283662   -3.277018 
H    3.362094    -0.04609    -2.571127 
H    2.990276    -1.556399   -3.418275 
H    -0.212783   1.843927    1.578381  
C    1.383785    1.224304    2.533289  
O    0.326581    1.973496    2.404066  
O    -0.80416    -0.211879   0.590897  
H    4.551767    -0.323089   -0.734942 
O    1.738691    0.347894    1.740069  
O    -1.524694   2.707305    0.701106  
H    -1.083942   3.293838    0.065885  
H    2.91454     3.803615    -1.880324 
C    2.173413    1.51297     3.772636  
H    2.450905    2.569676    3.787934  
H    1.545899    1.325733    4.648051  
H    3.062361    0.885988    3.806963  
H    1.685021    -3.127823   2.621553  
H    3.309019    -3.42157    1.984166  
H    -2.151687   1.043138    -1.961026 
C    -1.662416   0.056592    -0.291002 
H    4.222192    -0.491189   0.997578  
C    -3.054611   -0.415711   -0.117733 
C    -3.503046   -0.668343   1.182292  
C    -3.904399   -0.633133   -1.208161 
C    -4.805966   -1.103291   1.390684  
H    -2.824061   -0.512959   2.014209  
C    -5.202285   -1.081757   -0.993788 
H    -3.55012    -0.499777   -2.227533 
C    -5.655385   -1.308275   0.304497  
H    -5.159367   -1.287249   2.399658  
H    -5.85644    -1.263903   -1.839597 
H    -6.67026    -1.655248   0.468891  
H    4.92318     -1.83894    0.091683  
H    0.820091    4.370935    -3.098499 
H    3.024994    1.761338    -0.5022   
C    -2.207056   3.494293    1.677976  
H    -2.955377   4.138137    1.20754   
H    -2.711605   2.793522    2.343963  
H    -1.508661   4.101239    2.262201  
