62                                     
                                       
C    -2.688113   -2.599281   1.335324  
C    -2.630303   -1.220463   1.494581  
C    -1.477924   -0.532116   1.082886  
C    -0.354502   -1.214771   0.567689  
C    -0.462316   -2.595144   0.383003  
C    -1.618343   -3.283367   0.757041  
H    2.527391    0.509529    -2.875527 
H    -3.463725   -0.696138   1.94163   
C    -1.261802   0.933927    1.060541  
Co   1.066775    -0.031164   0.031122  
C    2.787461    -1.084485   -0.490363 
C    2.599744    -1.201572   0.917158  
C    2.560088    0.114518    1.456798  
C    2.879225    1.045269    0.400956  
C    3.018572    0.310075    -0.78877  
C    3.302574    0.822329    -2.167566 
C    2.880458    -2.186884   -1.502744 
C    2.474221    -2.459219   1.719281  
C    2.325384    0.485632    2.888856  
C    2.964053    2.528885    0.594968  
H    2.018186    2.930564    0.975727  
H    3.743777    2.770821    1.323818  
H    1.776589    1.428696    2.962665  
H    1.748086    -0.28325    3.408678  
H    3.276957    0.606847    3.417647  
H    1.629921    -2.421792   2.412209  
H    2.35443     -3.339015   1.084827  
H    3.388443    -2.597483   2.306272  
H    2.28324     -1.960224   -2.391529 
H    -1.938528   0.1796      -2.668661 
C    -0.394185   1.142573    -2.183203 
O    -1.52689    1.092162    -2.815352 
O    -0.099223   1.34791     0.750046  
H    3.373826    1.911774    -2.192515 
O    0.09698     0.114167    -1.687487 
O    -2.540388   -1.107085   -1.877245 
H    -1.819982   -1.449494   -1.318511 
C    0.246518    2.494582    -2.140859 
H    -0.500678   3.24946     -1.889506 
H    1.061425    2.509019    -1.418362 
H    0.631275    2.725955    -3.139537 
H    3.917626    -2.32844    -1.824726 
H    4.254553    0.417702    -2.526391 
H    3.208884    3.046877    -0.335187 
H    2.52995     -3.138568   -1.097017 
N    -2.202863   1.851393    1.276326  
C    -1.982868   3.286979    1.317141  
H    -2.348689   3.662534    2.274584  
H    -0.916423   3.47595     1.216483  
H    -2.526667   3.772994    0.502258  
O    -3.491801   1.467405    1.55295   
C    -4.249974   1.353583    0.337821  
H    -5.248195   1.05535     0.658208  
H    -4.300461   2.318869    -0.174143 
H    -3.81228    0.59118     -0.315945 
H    -3.571926   -3.140247   1.656646  
H    0.362123    -3.152163   -0.054987 
H    -1.679507   -4.35803    0.610474  
C    -3.304121   -2.197433   -2.391275 
H    -3.758286   -2.759423   -1.57049  
H    -4.090744   -1.771016   -3.01352  
H    -2.685999   -2.864946   -2.999027 
