69                                     
                                       
C    1.710458    3.787721    -1.029688 
C    0.405364    3.306953    -0.988673 
C    0.158514    1.956317    -0.724656 
C    1.206223    1.049096    -0.510394 
C    2.502091    1.559929    -0.533393 
C    2.771412    2.907475    -0.796389 
H    2.751503    -3.511786   1.155835  
H    -0.42016    3.997073    -1.149348 
N    -1.20749    1.563256    -0.632549 
Co   0.87007     -0.809744   -0.169981 
C    1.435815    -2.883329   -0.418117 
C    2.35313     -1.982712   -1.083879 
C    1.63228     -1.296962   -2.097437 
C    0.2572      -1.654196   -1.958354 
C    0.160217    -2.69535    -0.964481 
C    -1.114322   -3.36228    -0.549535 
C    1.804561    -3.809539   0.699501  
C    3.825835    -1.909024   -0.809922 
C    2.184657    -0.362363   -3.126802 
C    -0.880515   -1.15384    -2.796284 
H    -0.937463   -4.092995   0.242269  
H    -1.841899   -2.632376   -0.176825 
H    -1.559839   -3.887357   -1.400543 
H    -1.828287   -1.226641   -2.250858 
H    -0.728423   -0.110198   -3.090948 
H    -0.98081    -1.74732    -3.711455 
H    1.498756    0.463997    -3.331075 
H    3.139207    0.068445    -2.818742 
H    2.344494    -0.911812   -4.060985 
H    2.135466    1.47941     2.357551  
C    2.424369    -0.462521   2.527855  
O    2.696364    0.769524    2.819171  
O    -0.900878   -0.393589   0.480788  
H    4.296198    -1.087468   -1.35458  
O    1.637511    -0.835338   1.650062  
O    1.193326    2.736951    2.170883  
H    1.160392    3.033512    1.247168  
C    3.176085    -1.462487   3.359689  
H    4.135785    -1.666896   2.872151  
H    3.381215    -1.058897   4.351034  
H    2.610467    -2.391531   3.423939  
H    4.026976    -1.764174   0.257032  
H    1.923346    -4.830934   0.322963  
H    -1.892981   2.264154    -0.882557 
C    -1.67252    0.461886    -0.023624 
H    1.040718    -3.821391   1.481499  
O    4.068023    3.287888    -0.810182 
H    4.142593    4.235101    -0.997498 
C    -3.123786   0.296478    0.154363  
C    -4.051628   0.760398    -0.724877 
C    -5.267391   -0.869057   1.321171  
H    -5.711325   -1.132395   2.28345   
C    -5.865705   0.421938    0.792929  
H    -6.946703   0.338857    0.672658  
C    -3.801387   1.328045    -2.095547 
H    -3.920973   2.418123    -2.097762 
H    -2.822717   1.063629    -2.494364 
H    -4.572545   0.928462    -2.759053 
O    -5.3782     0.710733    -0.514172 
S    -3.491075   -0.66385    1.611288  
H    -5.448534   -1.681939   0.613702  
H    -5.635541   1.259722    1.459182  
H    1.896908    4.837761    -1.236269 
H    4.321833    -2.836148   -1.114873 
H    3.359665    0.913907    -0.353037 
C    -0.113485   2.346503    2.587275  
H    -0.386316   1.367977    2.173983  
H    -0.093599   2.28438     3.675874  
H    -0.853684   3.095797    2.290411  
