55                                     
                                       
C    4.041054    0.300076    -0.563875 
C    3.178614    1.388686    -0.50516  
C    1.82502     1.142213    -0.306023 
C    1.282362    -0.142874   -0.181286 
C    2.195577    -1.201447   -0.217467 
C    3.570531    -1.008077   -0.40853  
O    -0.731498   -0.404379   1.965575  
H    1.834672    -2.221937   -0.091891 
N    0.876329    2.191862    -0.146696 
Co   -0.660875   -0.143792   0.007654  
C    -1.472296   -0.103505   -1.903539 
C    -0.832172   -1.364023   -1.732406 
C    -1.418226   -1.99606    -0.598019 
C    -2.534264   -1.187432   -0.171688 
C    -2.572775   -0.031861   -0.970055 
C    -1.130647   0.924547    -2.939703 
C    0.24498     -1.909362   -2.615795 
C    -1.070206   -3.331787   -0.012641 
C    -3.446493   -1.541754   0.959994  
C    -3.587956   1.068627    -0.909262 
H    0.976347    -1.145802   -2.890749 
H    0.78097     -2.735588   -2.145866 
H    -0.214165   -2.288651   -3.535276 
H    -0.08065    -3.668212   -0.330531 
H    -1.081846   -3.298955   1.081146  
H    -1.794117   -4.090614   -0.328048 
H    -2.878256   -1.815222   1.853547  
H    -4.110064   -0.714041   1.217952  
H    -4.068587   -2.398979   0.681894  
H    1.601383    -0.20501    1.836914  
C    0.053039    -0.335177   2.917164  
O    1.347523    -0.197562   2.789196  
H    -1.312359   1.938265    -2.56969  
H    -0.077557   0.858709    -3.226205 
H    -1.734055   0.783749    -3.842506 
H    -3.93709    1.252119    0.110822  
C    -1.076216   2.919319    0.375052  
H    3.56618     2.398408    -0.598783 
H    -3.191261   2.00263     -1.314169 
H    -4.461537   0.798142    -1.51176  
H    5.102884    0.471968    -0.714835 
N    -0.375216   1.805673    0.170202  
C    -0.412974   -0.409254   4.335138  
H    0.080285    -1.247877   4.833058  
H    -0.112997   0.503066    4.857471  
H    -1.494213   -0.526828   4.369134  
H    -0.540463   5.083023    0.276856  
H    -2.119287   2.862395    0.650542  
C    -0.263977   4.044803    0.183485  
C    0.978484    3.535574    -0.14631  
H    1.912165    4.028884    -0.370027 
C    4.522092    -2.174344   -0.464777 
H    4.869577    -2.34153    -1.489616 
H    5.40532     -1.994063   0.154233  
H    4.04504     -3.094221   -0.118778 
