58                                     
                                       
C    -1.864958   3.807863    0.391561  
C    -2.017341   2.838021    -0.589892 
C    -1.172691   1.728952    -0.558421 
C    -0.170432   1.525116    0.407903  
C    -0.077513   2.499842    1.401914  
C    -0.906116   3.62481     1.389391  
H    2.523111    1.299089    2.83019   
H    -2.783316   2.920843    -1.355629 
C    -1.320332   0.579615    -1.431197 
Co   0.822057    -0.136904   0.124044  
C    2.706387    -0.840096   0.97812   
C    2.505398    -1.440804   -0.301045 
C    2.469176    -0.384015   -1.263838 
C    2.576232    0.852992    -0.587607 
C    2.730863    0.564898    0.813889  
C    2.838197    -1.517875   2.309074  
C    2.4739      -2.908166   -0.618434 
C    2.305435    -0.54842    -2.745607 
C    2.592447    2.209544    -1.225613 
C    3.047369    1.544898    1.901458  
H    4.123046    1.531765    2.114996  
H    1.9561      -1.328417   2.930754  
H    2.954899    -2.598415   2.201458  
H    3.718017    -1.137646   2.838846  
H    2.298897    -3.504255   0.279688  
H    1.675944    -3.154383   -1.327198 
H    3.422214    -3.234376   -1.06025  
H    2.093123    -1.588856   -3.006367 
H    1.491323    0.072994    -3.133289 
O    -0.275933   -1.033727   1.377217  
H    -1.694888   -0.825733   1.003419  
C    -0.231626   -2.437154   1.352058  
H    3.616157    2.517578    -1.46744  
O    -3.353389   -1.979308   2.311137  
O    -2.644921   -0.755659   0.563641  
C    -3.575885   -1.339902   1.306069  
H    2.778467    2.56425     1.615842  
N    -0.499031   -0.410121   -1.322878 
H    3.22432     -0.258651   -3.266635 
H    -2.501265   4.6869      0.398511  
H    0.626882    2.386136    2.219857  
H    -0.810332   4.366262    2.178356  
H    2.153189    2.962505    -0.565685 
H    2.013029    2.212412    -2.15395  
C    -4.965134   -1.113185   0.749706  
H    -5.001009   -1.411813   -0.301521 
H    -5.694092   -1.678758   1.328498  
H    -5.200315   -0.046112   0.793011  
O    -2.323387   0.44274     -2.292638 
H    0.664894    -2.8305     1.851117  
H    -1.111946   -2.830865   1.874516  
H    -0.233493   -2.847867   0.325662  
C    -1.044577   -1.526778   -2.087604 
C    -2.15192    -0.846848   -2.919151 
H    -3.109619   -1.36539    -2.883409 
H    -1.859418   -0.675414   -3.958774 
H    -1.455273   -2.267567   -1.394083 
H    -0.281211   -2.000662   -2.710792 
