57                                     
                                       
C    3.097447    2.365279    1.05481   
C    2.864952    1.10394     1.583856  
C    1.727473    0.390474    1.195234  
C    0.778739    0.903027    0.308376  
C    1.082635    2.148794    -0.248355 
C    2.210165    2.881178    0.115425  
H    -1.737179   2.921313    -1.732324 
H    3.57567     0.661378    2.280521  
N    1.643415    -0.950798   1.678714  
Co   -0.824582   -0.055633   -0.162627 
C    -2.836312   0.448574    -0.869786 
C    -2.896763   -0.666562   -0.001528 
C    -2.400251   -0.241953   1.281178  
C    -2.019862   1.114348    1.19093   
C    -2.24751    1.536627    -0.163533 
C    -3.221694   0.527318    -2.314865 
C    -3.374395   -2.055519   -0.307216 
C    -2.290067   -1.130847   2.483291  
C    -1.484157   1.974393    2.29475   
C    -2.113303   2.927901    -0.704239 
H    -3.087878   3.430885    -0.709766 
H    -2.331251   0.662456    -2.939175 
H    -3.742377   -0.373624   -2.646683 
H    -3.887635   1.381215    -2.478933 
H    -3.697288   -2.143967   -1.347305 
H    -2.578087   -2.791677   -0.145531 
H    -4.220584   -2.329878   0.332125  
H    -2.090743   -2.164095   2.183405  
H    -1.481428   -0.809992   3.147133  
O    -0.146196   -0.351387   -1.899653 
H    1.321976    -0.758745   -1.646273 
C    -0.608646   -1.531242   -2.504293 
H    -2.292463   2.552084    2.757163  
O    3.234274    0.622734    -2.012544 
O    2.178702    -1.244679   -1.329847 
C    3.237444    -0.448618   -1.453164 
H    -1.431447   3.529998    -0.098987 
H    -3.220118   -1.123308   3.062564  
C    0.881794    -1.930366   1.182993  
H    3.981288    2.921538    1.349732  
H    0.432031    2.547794    -1.020696 
H    2.407568    3.841497    -0.350616 
H    -0.730787   2.672803    1.920567  
H    -1.011353   1.372002    3.075455  
C    4.470008    -1.056819   -0.814949 
H    4.763256    -1.955952   -1.364915 
H    5.284756    -0.333876   -0.825186 
H    4.246053    -1.357757   0.213095  
C    1.253924    -3.341646   1.541213  
H    0.346909    -3.926653   1.698089  
H    1.790241    -3.759106   0.682794  
H    1.892168    -3.40242    2.424998  
H    2.410717    -1.244318   2.269093  
O    -0.094505   -1.748581   0.431105  
H    -1.694507   -1.513649   -2.682946 
H    -0.118447   -1.655827   -3.478983 
H    -0.387201   -2.426817   -1.901756 
