60                                     
                                       
C    2.44043     2.651711    0.02493   
C    1.223752    3.112113    0.501085  
C    0.122245    2.249747    0.533255  
C    0.176397    0.930631    0.080273  
C    1.428295    0.48676     -0.351712 
C    2.537149    1.325894    -0.389597 
H    0.636527    -2.621605   -1.08036  
H    1.1302      4.136683    0.855324  
N    -1.077721   2.78835     1.086284  
Co   -1.339252   -0.24759    0.051295  
C    -2.214058   -1.981499   -0.926004 
C    -3.182559   -0.966279   -0.829659 
C    -2.676259   0.190272    -1.529295 
C    -1.421513   -0.148495   -2.095628 
C    -1.090787   -1.467475   -1.660619 
C    -2.221141   -3.344073   -0.310055 
C    -4.487993   -1.005802   -0.093841 
C    -3.398531   1.497261    -1.668147 
C    -0.585805   0.735494    -2.96978  
C    0.131681    -2.272495   -1.987896 
H    -0.138926   -3.145845   -2.592437 
H    -1.360595   -3.445177   0.360086  
H    -3.133866   -3.533      0.259715  
H    -2.140645   -4.110849   -1.088135 
H    -4.620997   -1.957248   0.426152  
H    -4.541272   -0.208282   0.655788  
H    -5.328918   -0.877682   -0.784016 
H    -4.05953    1.667974    -0.811656 
H    -2.698571   2.337186    -1.728735 
O    -0.54271    -1.339995   1.35786   
H    0.906021    -1.322202   1.776621  
C    -1.323469   -1.636525   2.479675  
H    -0.919158   0.652694    -4.010383 
O    2.456681    -2.433198   0.352975  
O    1.839781    -1.344621   2.219067  
C    2.706189    -1.983818   1.457257  
H    0.856869    -1.68839    -2.560907 
H    -4.020151   1.517745    -2.570456 
C    -2.146031   2.101236    1.503839  
H    3.302608    3.307615    -0.017421 
H    1.554794    -0.550494   -0.654786 
H    0.470324    0.45946     -2.926826 
H    -0.661822   1.785237    -2.671186 
C    4.062279    -2.113374   2.111384  
H    4.779063    -2.510397   1.394001  
H    4.390229    -1.137106   2.473998  
H    3.985054    -2.782804   2.973001  
C    -3.216676   2.860075    2.241218  
H    -4.167201   2.721351    1.720445  
H    -3.318386   2.425327    3.23867   
H    -3.004497   3.926651    2.331911  
C    3.846152    0.763667    -0.857934 
F    3.687901    -0.031638   -1.924977 
F    4.713207    1.731955    -1.202136 
F    4.446004    0.027429    0.092825  
H    -1.056549   3.773268    1.315349  
O    -2.302882   0.878531    1.326934  
H    -2.298859   -2.070777   2.197882  
H    -0.800202   -2.374832   3.102563  
H    -1.527149   -0.753628   3.104238  
