59                                     
                                       
C    -3.437049   0.95772     -1.300575 
C    -2.851656   -0.243892   -1.662185 
C    -1.553197   -0.538057   -1.227225 
C    -0.78987    0.338789    -0.446787 
C    -1.433346   1.515859    -0.073025 
C    -2.722988   1.8428      -0.495881 
H    0.897767    2.768267    1.971359  
H    -3.401712   -0.96456    -2.264683 
N    -1.081357   -1.840315   -1.551794 
Co   1.011258    -0.034208   0.131627  
C    2.835048    0.934943    0.851362  
C    3.16253     -0.003591   -0.145293 
C    2.472656    0.383073    -1.351833 
C    1.759041    1.577546    -1.093264 
C    1.918332    1.88549     0.29478   
C    3.264359    0.969914    2.28455   
C    4.027276    -1.222096   -0.021895 
C    2.544739    -0.35924    -2.652325 
C    0.978068    2.36991     -2.096482 
C    1.400516    3.075503    1.04797   
H    2.22647     3.741437    1.323567  
H    2.391436    0.901783    2.942458  
H    3.946884    0.153433    2.529972  
H    3.776485    1.914829    2.497074  
H    4.428384    -1.324644   0.989315  
H    3.459674    -2.131753   -0.249149 
H    4.873325    -1.170725   -0.715678 
H    2.624083    -1.437417   -2.47908  
H    1.654626    -0.180109   -3.263023 
O    0.407728    -0.449835   1.87659   
H    -0.899275   -1.207461   1.674468  
C    1.14022     -1.469269   2.510928  
H    1.65408     3.017166    -2.666437 
O    -3.125566   -0.355967   1.823692  
O    -1.584623   -1.944913   1.416508  
C    -2.822704   -1.461544   1.439185  
H    0.689829    3.659908    0.45892   
H    3.418667    -0.051795   -3.237793 
C    -0.027727   -2.468485   -1.015673 
H    -4.444481   1.201285    -1.628548 
H    -0.942126   2.221774    0.589593  
H    0.228434    3.000648    -1.613558 
H    0.452055    1.720857    -2.80246  
C    -3.829156   -2.474326   0.931225  
H    -3.907178   -3.301199   1.643299  
H    -4.802021   -1.998942   0.811493  
H    -3.492005   -2.893917   -0.021666 
C    0.043802    -3.958434   -1.19585  
H    1.085109    -4.259406   -1.313627 
H    -0.346634   -4.410248   -0.277816 
H    -0.544237   -4.312555   -2.044962 
H    -1.73876    -2.42814    -2.047541 
C    -3.319479   3.135384    -0.097107 
O    -2.721134   4.011921    0.483831  
H    -4.384197   3.271006    -0.384348 
O    0.869583    -1.904153   -0.365199 
H    1.062225    -1.360403   3.600798  
H    0.764251    -2.4697     2.244594  
H    2.209983    -1.447995   2.251124  
