60                                     
                                       
C    2.996042    2.326925    0.925032  
C    2.880641    0.978288    1.251436  
C    1.644543    0.348225    1.018913  
C    0.521851    1.008885    0.50282   
C    0.702681    2.36196     0.195721  
C    1.914226    3.01795     0.394184  
H    -0.910578   1.995224    -2.490855 
C    4.060913    0.222586    1.811667  
N    1.622892    -1.049558   1.30188   
Co   -1.044035   -0.03328    0.041215  
C    -2.754881   -0.046333   -1.293637 
C    -3.107363   -0.664012   -0.077384 
C    -2.940812   0.310747    0.96912   
C    -2.509556   1.522976    0.389043  
C    -2.320119   1.289288    -1.014996 
C    -2.701173   -0.65959    -2.657523 
C    -3.550483   -2.076189   0.158582  
C    -3.204803   0.056266    2.421327  
C    -2.334433   2.811928    1.139318  
C    -1.887839   2.262956    -2.073776 
H    -2.610661   2.281229    -2.896425 
H    -1.715349   -0.49448    -3.102248 
H    -2.880362   -1.736968   -2.623771 
H    -3.458595   -0.209739   -3.309267 
H    -3.54934    -2.657126   -0.767067 
H    -2.887114   -2.575268   0.874355  
H    -4.566168   -2.102119   0.568478  
H    -2.72706    -0.874237   2.74397   
H    -2.81416    0.867587    3.04113   
O    0.01569     -0.866377   -1.299723 
H    1.324133    -0.42272    -1.705189 
C    -0.085573   -2.249551   -1.496532 
H    -3.247554   3.039254    1.698901  
O    3.242557    -1.627194   -0.817989 
O    2.242037    -0.044395   -2.065213 
C    3.2813      -0.636441   -1.541346 
H    -1.815913   3.280207    -1.680116 
H    -4.280486   -0.030743   2.613083  
C    0.561807    -1.827983   1.440534  
H    -0.115389   2.926099    -0.239047 
H    -2.150018   3.646325    0.458819  
H    -1.500676   2.770832    1.846257  
C    4.582493    0.051326    -1.886821 
H    4.645728    0.970695    -1.294192 
H    5.425665    -0.596895   -1.648868 
H    4.597454    0.335509    -2.94075  
C    0.796103    -3.270917   1.792065  
H    0.165681    -3.891875   1.152689  
H    1.840818    -3.56306    1.673158  
H    0.491861    -3.433894   2.830138  
H    2.015482    4.066102    0.127873  
H    3.944805    2.831005    1.090859  
H    3.813576    -0.268687   2.759577  
H    4.409328    -0.549594   1.113289  
H    4.894563    0.904182    1.996169  
H    2.507079    -1.524483   1.149941  
O    -0.620147   -1.417546   1.333777  
H    -0.984492   -2.66984    -1.017393 
H    -0.144906   -2.484754   -2.569184 
H    0.796853    -2.773953   -1.093584 
