63                                     
                                       
C    3.149294    1.804526    0.944011  
C    2.88124     0.475882    1.261887  
C    1.584946    -0.010885   1.023845  
C    0.550777    0.782355    0.510111  
C    0.889541    2.104573    0.213074  
C    2.167016    2.63343     0.408918  
H    -0.762343   1.958261    -2.476689 
C    3.967328    -0.40906    1.823046  
N    1.399943    -1.398099   1.296847  
Co   -1.127085   -0.060231   0.039735  
C    -2.831697   0.144221    -1.288881 
C    -3.252276   -0.438408   -0.077122 
C    -2.966935   0.499212    0.977712  
C    -2.396316   1.657183    0.406939  
C    -2.240108   1.415989    -0.999677 
C    -2.854342   -0.45765    -2.658757 
C    -3.859638   -1.790129   0.147163  
C    -3.25567    0.264851    2.428612  
C    -2.065735   2.908137    1.169074  
C    -1.697299   2.340248    -2.051664 
H    -2.41642    2.455159    -2.869763 
H    -1.855895   -0.409729   -3.103495 
H    -3.163558   -1.505432   -2.635276 
H    -3.551542   0.087646    -3.304826 
H    -3.931029   -2.357184   -0.784361 
H    -3.257809   -2.372259   0.854507  
H    -4.869698   -1.699335   0.56169   
H    -2.902171   -0.723567   2.738655  
H    -2.759444   1.010955    3.054793  
O    -0.173923   -0.994777   -1.314429 
H    1.180512    -0.706086   -1.710602 
C    -0.437864   -2.354472   -1.524083 
H    -2.94265    3.236311    1.736465  
O    2.938108    -2.141332   -0.833491 
O    2.138571    -0.434411   -2.062286 
C    3.097619    -1.152224   -1.542    
H    -1.498867   3.336861    -1.648747 
H    -4.332639   0.316956    2.625932  
C    0.254624    -2.048149   1.422356  
H    0.140946    2.763146    -0.217587 
H    -1.786308   3.721988    0.495907  
H    -1.239273   2.759575    1.870171  
C    4.47294     -0.617838   -1.872059 
H    4.640161    0.280011    -1.266744 
H    5.232493    -1.363738   -1.638663 
H    4.528008    -0.324398   -2.92215  
C    0.315151    -3.512215   1.758986  
H    -0.374406   -4.048622   1.104229  
H    1.320221    -3.922843   1.649047  
H    -0.020396   -3.650073   2.791013  
H    4.149696    2.195956    1.119789  
H    3.662416    -0.87452    2.767193  
H    4.229648    -1.211945   1.121753  
H    4.871613    0.173492    2.013898  
C    2.4789      4.055367    0.016663  
H    1.619915    4.710987    0.18853   
H    3.326648    4.449177    0.584439  
H    2.733884    4.120708    -1.047099 
H    2.22391     -1.971529   1.146663  
O    -0.8708     -1.500579   1.314698  
H    -0.51482    -2.572136   -2.599299 
H    0.37145     -2.98421    -1.118754 
H    -1.385189   -2.667532   -1.056261 
