69                                     
                                       
C    1.966331    -3.444129   -0.870202 
C    2.324627    -2.120864   -1.104323 
C    1.395187    -1.111488   -0.777063 
C    0.123915    -1.392494   -0.26525  
C    -0.165799   -2.739186   -0.015958 
C    0.733303    -3.758834   -0.309454 
H    -2.998912   -2.371393   1.758043  
C    3.690099    -1.783421   -1.647227 
N    1.878552    0.220623    -0.921906 
Co   -1.173581   -0.027625   0.134372  
C    -3.28982    0.317338    0.592304  
C    -2.860074   1.243418    -0.375046 
C    -2.389217   0.494933    -1.512867 
C    -2.584103   -0.883867   -1.253137 
C    -3.076235   -1.006715   0.083624  
C    -3.883915   0.592211    1.939232  
C    -2.812174   2.737334    -0.26994  
C    -1.819398   1.101299    -2.758997 
C    -2.326982   -1.991434   -2.228686 
C    -3.513891   -2.252288   0.798498  
H    -4.590249   -2.217825   1.001613  
H    -3.463175   -0.075617   2.696768  
H    -3.71688    1.622229    2.261521  
H    -4.966059   0.419476    1.908986  
H    -3.211219   3.084347    0.686508  
H    -1.780256   3.097739    -0.358806 
H    -3.401684   3.202169    -1.067126 
H    -1.237962   1.996971    -2.520143 
H    -1.156577   0.399786    -3.273743 
O    -0.557502   0.005502    1.984713  
H    0.54975     -0.027086   1.975645  
C    -0.818769   1.207115    2.705415  
H    -3.138385   -2.029559   -2.96417  
O    3.828855    -0.254536   1.154543  
O    1.82671     0.342003    1.919854  
C    2.795583    -0.500911   1.785028  
H    -3.323662   -3.146617   0.200756  
H    -2.614009   1.388444    -3.45686  
C    1.264093    1.336404    -0.535372 
H    -1.118253   -3.003246   0.434235  
H    0.47583     -4.793028   -0.100216 
H    -2.2679     -2.96204    -1.733262 
H    -1.384934   -1.845398   -2.764048 
C    2.5957      -1.862474   2.432677  
H    3.481241    -2.483914   2.29794   
H    2.381455    -1.738246   3.498206  
H    1.729873    -2.355363   1.975531  
C    2.041713    2.648324    -0.541398 
C    1.464583    3.495502    -1.688341 
C    1.791686    3.34578     0.80356   
C    3.545956    2.444562    -0.741238 
H    1.59372     2.995481    -2.654918 
H    0.398434    3.687623    -1.533837 
H    1.986044    4.457151    -1.728506 
H    2.164589    2.723785    1.62098   
H    2.306498    4.312151    0.809337  
H    0.722129    3.518967    0.954545  
H    4.045522    3.4165      -0.689415 
H    3.958324    1.796105    0.040495  
H    3.770719    2.017767    -1.726906 
H    2.676019    -4.230342   -1.112755 
H    3.631923    -1.107015   -2.507983 
H    4.298901    -1.307882   -0.867491 
H    4.204112    -2.691174   -1.970902 
H    2.891207    0.280088    -0.87487  
O    0.041634    1.395123    -0.253974 
H    -1.569828   1.023067    3.477862  
H    0.110068    1.541367    3.177473  
H    -1.171562   2.004605    2.038713  
