64                                     
                                       
C    0.24538     3.846482    -1.608603 
C    -0.658949   2.796141    -1.588318 
C    -0.258995   1.566058    -1.053278 
C    1.026752    1.348628    -0.530645 
C    1.903305    2.434809    -0.540474 
C    1.521609    3.663441    -1.072676 
H    4.14479     0.741719    1.280301  
H    -1.660854   2.953565    -1.984899 
C    -1.147069   0.412821    -0.83122  
Co   1.235658    -0.454502   0.131035  
C    2.809164    -1.788662   0.825774  
C    1.838084    -2.52402    0.103492  
C    1.804309    -1.995709   -1.233768 
C    2.7282      -0.930176   -1.321734 
C    3.322625    -0.766331   -0.021548 
C    3.215447    -1.933769   2.259485  
C    0.990636    -3.665684   0.58235   
C    0.892813    -2.493679   -2.313961 
C    3.054741    -0.131528   -2.546993 
C    4.410528    0.187521    0.373816  
H    5.343146    -0.352809   0.574465  
H    2.875004    -1.068448   2.83936   
H    2.802327    -2.839297   2.709312  
H    4.306808    -1.987918   2.334695  
H    1.1333      -3.845998   1.650472  
H    -0.074223   -3.463908   0.4203    
H    1.240443    -4.58898    0.047907  
H    -0.107215   -2.694076   -1.918185 
H    0.793235    -1.762618   -3.120596 
O    0.76002     0.04579     1.892718  
H    -0.321473   1.070734    1.863024  
C    0.06852     -0.966962   2.580338  
H    3.86797     -0.607587   -3.106224 
O    -0.095752   3.45732     1.775532  
O    -1.256577   1.531422    1.786535  
C    -1.135369   2.849091    1.665415  
H    4.616403    0.910128    -0.419341 
H    1.279323    -3.422418   -2.748507 
N    -2.454157   0.472431    -1.133134 
H    -0.044641   4.808582    -2.01792  
H    2.89347     2.339392    -0.103296 
H    2.217911    4.49713     -1.05621  
H    3.364011    0.884206    -2.289863 
H    2.190708    -0.046828   -3.211496 
C    -2.46731    3.511679    1.380288  
H    -3.092869   3.473297    2.277126  
H    -2.308242   4.549401    1.088683  
H    -2.99501    2.966601    0.59221   
C    -3.411794   -0.490968   -0.692012 
C    -3.487408   -0.803411   0.66501   
C    -4.277795   -1.071904   -1.612508 
C    -4.435614   -1.726118   1.092166  
H    -2.814517   -0.30423    1.357408  
C    -5.235627   -1.981195   -1.170542 
H    -4.19312    -0.81699    -2.66479  
C    -5.310532   -2.313797   0.178984  
H    -4.500451   -1.97706    2.146162  
H    -5.916198   -2.434856   -1.883952 
H    -6.053056   -3.027945   0.520658  
H    -2.80016    1.32521     -1.550561 
O    -0.659057   -0.630916   -0.330199 
H    -0.736816   -1.413157   1.973775  
H    0.735076    -1.780725   2.89987   
H    -0.391717   -0.545052   3.484367  
