64                                     
                                       
C    0.642689    3.849063    -1.685485 
C    -0.411952   2.949254    -1.737709 
C    -0.268493   1.682705    -1.16329  
C    0.913204    1.260075    -0.550754 
C    1.929023    2.216162    -0.466674 
C    1.814376    3.485576    -1.028421 
H    4.47353     0.353082    0.49436   
H    -1.353925   3.233697    -2.204562 
N    -1.440772   0.868991    -1.157362 
Co   1.117905    -0.506625   0.184809  
C    2.758793    -1.905579   0.562226  
C    1.600312    -2.617197   0.171957  
C    1.248872    -2.176952   -1.153175 
C    2.173098    -1.190317   -1.559546 
C    3.089191    -0.982721   -0.472136 
C    3.511887    -1.986227   1.854215  
C    0.830251    -3.639224   0.954999  
C    0.067328    -2.680064   -1.927606 
C    2.211024    -0.482625   -2.879679 
C    4.311533    -0.115729   -0.481583 
H    5.202077    -0.71085    -0.717306 
H    3.399952    -1.053619   2.41869   
H    3.1619      -2.811711   2.47793   
H    4.578062    -2.141257   1.657247  
H    1.267423    -3.792983   1.94454   
H    -0.210065   -3.322884   1.097864  
H    0.818749    -4.604904   0.437952  
H    -0.756186   -2.941089   -1.255874 
H    -0.300562   -1.927491   -2.632375 
O    1.151549    0.213085    1.928976  
H    -0.015803   1.25506     1.894221  
C    0.649204    -0.649269   2.914282  
H    2.91101     -0.979717   -3.560747 
O    0.217564    3.62406     1.803764  
O    -0.942191   1.695349    1.812233  
C    -0.818621   3.013608    1.68105   
H    4.234263    0.67832     -1.228176 
H    0.328698    -3.575076   -2.503133 
C    -1.670254   -0.192499   -0.376916 
H    0.535016    4.834935    -2.125915 
H    2.830579    1.971693    0.087422  
H    2.627741    4.197902    -0.931595 
H    2.52452     0.558022    -2.761033 
H    1.2264      -0.474276   -3.355537 
C    -2.14769    3.669176    1.368116  
H    -2.830745   3.537377    2.212208  
H    -1.997649   4.730174    1.172419  
H    -2.603985   3.185495    0.49921   
C    -5.215232   -1.15296    -1.321881 
H    -3.568417   -0.263734   -2.377128 
C    -4.801186   -1.753302   0.980624  
H    -2.818574   -1.301229   1.72056   
C    -5.657401   -1.695885   -0.117935 
H    -5.874813   -1.125089   -2.183093 
H    -5.146935   -2.176547   1.918083  
H    -6.669251   -2.080377   -0.037491 
C    -3.920508   -0.654892   -1.425737 
C    -3.06558    -0.70669    -0.322329 
C    -3.502778   -1.268761   0.878695  
H    -2.264643   1.295314    -1.562522 
O    -0.795759   -0.774745   0.295686  
H    0.616478    -0.122708   3.877492  
H    -0.373755   -0.995283   2.690035  
H    1.27502     -1.544673   3.050829  
