72                                     
                                       
C    -1.273908   2.746635    -2.469669 
C    -1.78021    1.545878    -1.99021  
C    -0.958843   0.726957    -1.208029 
C    0.384568    1.0374      -0.950266 
C    0.849485    2.275625    -1.397523 
C    0.031156    3.121835    -2.144445 
H    2.929627    2.135165    0.95759   
H    -2.794626   1.246905    -2.241987 
C    -1.325539   -0.608105   -0.662496 
Co   1.218967    -0.437406   -0.024816 
C    3.012391    -0.838305   1.101382  
C    2.579835    -2.021208   0.449407  
C    2.595036    -1.762916   -0.962754 
C    3.007967    -0.428548   -1.175764 
C    3.229249    0.168459    0.116828  
C    3.123376    -0.577321   2.571089  
C    2.187054    -3.333979   1.06093   
C    2.186309    -2.756054   -2.007371 
C    3.206681    0.218855    -2.514067 
C    3.699042    1.560365    0.429017  
H    4.594911    1.525515    1.059134  
H    2.354092    0.138886    2.880957  
H    3.008126    -1.493189   3.155462  
H    4.104009    -0.149455   2.804231  
H    2.238484    -3.297427   2.15175   
H    1.162475    -3.609197   0.78483   
H    2.850218    -4.137149   0.720692  
H    1.217086    -3.202197   -1.763818 
H    2.102814    -2.286372   -2.990323 
O    0.261991    0.014163    1.550579  
H    -0.507768   1.258058    1.620538  
C    -0.174815   -1.030296   2.364113  
H    4.120097    -0.158991   -2.986688 
O    0.871993    3.16529     1.578836  
O    -1.111086   2.10675     1.585383  
C    -0.339932   3.178085    1.49136   
H    3.967891    2.100958    -0.482347 
N    -2.551946   -0.94776    -0.232419 
H    2.924354    -3.562921   -2.079528 
H    -1.89232    3.390115    -3.087698 
H    1.854985    2.603979    -1.152575 
H    0.417332    4.077287    -2.489659 
H    3.29936     1.302498    -2.422762 
H    2.366926    0.021732    -3.186375 
C    -1.136164   4.436252    1.227222  
H    -1.978272   4.506601    1.919743  
H    -0.491701   5.309884    1.317478  
H    -1.540604   4.379965    0.211469  
O    -0.373285   -1.448726   -0.623788 
H    -0.78695    -1.768191   1.81669   
H    0.663616    -1.579397   2.821582  
H    -0.786266   -0.630015   3.186573  
C    -2.813258   -2.401237   -0.07496  
C    -3.372701   -2.97109    -1.381488 
C    -3.673027   -2.784439   1.123831  
H    -1.827801   -2.840718   0.082924  
H    -2.717523   -2.717001   -2.219673 
H    -3.433956   -4.061732   -1.313691 
H    -4.375032   -2.587977   -1.593385 
H    -3.253911   -2.405136   2.058533  
H    -4.707462   -2.442734   1.032165  
H    -3.694268   -3.876946   1.18078   
C    -3.540885   0.099201    0.122137  
C    -3.780711   0.223756    1.632071  
C    -4.843049   -0.025758   -0.664069 
H    -3.057284   1.034484    -0.147625 
H    -2.835631   0.14417     2.17463   
H    -4.181517   1.222869    1.826581  
H    -4.492722   -0.505462   2.021659  
H    -4.657565   -0.081869   -1.741294 
H    -5.414999   -0.910938   -0.369498 
H    -5.468252   0.850132    -0.465817 
