61                                     
                                       
C    2.473205    -2.510677   -1.502765 
C    2.532875    -1.132575   -1.364762 
C    1.410125    -0.443671   -0.877013 
C    0.221875    -1.119617   -0.528753 
C    0.213562    -2.509305   -0.644255 
C    1.320472    -3.199358   -1.126984 
H    -2.64449    -2.800315   1.027971  
H    3.447581    -0.616488   -1.620456 
C    1.306019    0.987579    -0.533144 
Co   -1.164089   0.057717    0.102029  
C    -3.267371   0.021097    0.673254  
C    -2.969231   1.238812    0.016019  
C    -2.518428   0.913485    -1.309971 
C    -2.523873   -0.492487   -1.456555 
C    -2.945254   -1.055023   -0.202503 
C    -3.752419   -0.191773   2.073431  
C    -3.096287   2.636192    0.54732   
C    -2.09003    1.925882    -2.328436 
C    -2.183926   -1.258399   -2.69894  
C    -3.182431   -2.500316   0.122319  
H    -4.249565   -2.686251   0.291286  
H    -2.964698   -0.652885   2.679962  
H    -4.053696   0.745124    2.547233  
H    -4.618951   -0.86176    2.070904  
H    -3.413763   2.636854    1.592754  
H    -2.140794   3.17056     0.492881  
H    -3.831512   3.20902     -0.028659 
H    -1.505898   2.724346    -1.861407 
H    -1.4721     1.471832    -3.107512 
O    -0.584173   -0.107343   1.894302  
H    0.940131    -0.199872   1.982551  
C    -0.752366   1.068534    2.643097  
H    -3.075345   -1.385341   -3.323496 
O    2.188809    -2.205926   1.921462  
O    1.949722    0.026554    2.018577  
C    2.666347    -1.094806   1.943082  
H    -2.864576   -3.151781   -0.695191 
N    2.314443    1.888649    -0.547319 
H    -2.960566   2.382013    -2.813265 
H    3.335693    -3.051465   -1.87882  
H    -0.660387   -3.073753   -0.331912 
H    1.293094    -4.283086   -1.199245 
H    -1.787711   -2.248354   -2.461939 
H    -1.424675   -0.741808   -3.292262 
C    4.150548    -0.812901   1.883275  
H    4.460113    -0.278267   2.785911  
H    4.698551    -1.750608   1.797844  
H    4.360311    -0.166319   1.026619  
O    0.179178    1.432722    -0.183228 
H    -0.319567   1.951549    2.143883  
H    -1.811031   1.287844    2.845896  
H    -0.2482     0.958501    3.61278   
C    2.253024    3.061926    0.314797  
H    1.269841    3.517016    0.21801   
H    2.428729    2.756946    1.351603  
H    3.021759    3.763451    -0.012643 
O    3.604517    1.410355    -0.689424 
C    4.140483    1.84921     -1.932982 
H    4.152176    2.942951    -1.987858 
H    5.161988    1.466865    -1.959366 
H    3.560934    1.442819    -2.768308 
