62                                     
                                       
C    -2.617705   -0.218575   2.890307  
C    -2.428055   0.872945    2.050065  
C    -1.428687   0.839778    1.067735  
C    -0.558416   -0.257038   0.945847  
C    -0.816505   -1.356554   1.775227  
C    -1.828107   -1.35501    2.73796   
H    1.925188    -3.330976   0.746737  
H    -3.06918    1.737367    2.171086  
N    -1.327999   1.947591    0.170119  
Co   1.009925    -0.251618   -0.179499 
C    3.04457     -0.933303   -0.434694 
C    2.998806    0.46231     -0.588474 
C    2.445602    1.016244    0.625655  
C    2.244244    -0.045481   1.550158  
C    2.524516    -1.264345   0.870028  
C    3.512005    -1.965709   -1.412962 
C    3.371539    1.270185    -1.793596 
C    2.220157    2.474459    0.891581  
C    1.79933     0.118071    2.969545  
C    2.470981    -2.659164   1.417962  
H    3.482976    -3.060945   1.535501  
H    2.756021    -2.745086   -1.556242 
H    3.754735    -1.533057   -2.385718 
H    4.415736    -2.452436   -1.030915 
H    3.703287    0.63391     -2.616635 
H    2.520902    1.862104    -2.148217 
H    4.187298    1.959286    -1.553726 
H    2.092595    3.025597    -0.045195 
H    1.331749    2.635483    1.511973  
O    0.286779    -1.704057   -1.287283 
H    -0.665197   -1.872437   -1.08655  
C    0.370178    -1.543966   -2.713636 
H    2.656854    0.411591    3.584642  
H    -2.928182   -1.413793   0.650354  
O    -3.757847   -1.498528   0.138305  
O    -2.330701   -2.008584   -1.509041 
C    -3.47127    -1.86434    -1.104359 
H    1.990438    -2.690116   2.398197  
H    3.074392    2.914239    1.417026  
C    -0.559412   1.985174    -0.924979 
H    -3.395004   -0.182487   3.645695  
H    -0.190504   -2.242608   1.68411   
H    -1.988009   -2.224409   3.367641  
H    1.390173    -0.808287   3.376639  
H    1.031101    0.890574    3.06701   
C    -4.69558    -2.09029    -1.939487 
H    -5.230605   -2.962894   -1.554336 
H    -5.366636   -1.232601   -1.858379 
H    -4.409137   -2.26056    -2.975378 
C    -0.724567   3.297358    -1.644279 
H    0.174012    3.895506    -1.44907  
H    -0.781166   3.135057    -2.722187 
O    0.219704    1.091124    -1.321963 
H    -0.287352   -0.738944   -3.045967 
H    1.404801    -1.297352   -2.954831 
H    0.09006     -2.483894   -3.191531 
C    -2.113995   3.184627    0.336388  
H    -3.152681   2.939219    0.558436  
H    -1.703213   3.760173    1.172644  
C    -1.984138   3.899373    -1.018516 
H    -2.854773   3.671822    -1.637376 
H    -1.929142   4.981499    -0.900803 
