61                                     
                                       
C    3.565412    0.943192    -1.722698 
C    2.300224    1.478474    -1.930884 
C    1.202017    0.920391    -1.27037  
C    1.321689    -0.185735   -0.400591 
C    2.601885    -0.683377   -0.171954 
C    3.703931    -0.124337   -0.836237 
H    1.265707    -2.473223   2.537493  
C    -1.431612   -2.322313   1.340809  
C    -0.140853   1.467428    -1.337968 
Co   -0.392083   -0.755933   0.315071  
C    -2.188884   -1.954589   0.211536  
C    -1.347166   -2.129153   -0.947298 
C    -0.112123   -2.691668   -0.521619 
C    -0.125096   -2.738931   0.905954  
C    -1.86658    -2.261387   2.773271  
C    -3.636143   -1.565225   0.192962  
C    -1.744172   -1.865018   -2.368144 
C    0.974196    -3.160886   -1.438642 
C    0.956682    -3.23943    1.81802   
H    0.609236    -4.108845   2.385051  
H    -1.020172   -2.061295   3.438205  
H    -2.636013   -1.50011    2.936292  
H    -2.293642   -3.22213    3.080254  
H    -3.944355   -1.08632    1.125454  
H    -3.870969   -0.879416   -0.62477  
H    -4.247402   -2.464901   0.061522  
H    -2.534895   -1.111884   -2.422451 
H    -0.894146   -1.510387   -2.959024 
H    0.693204    -4.134246   -1.855244 
O    0.014805    0.178575    2.003103  
H    0.321209    1.119856    1.847967  
H    -0.670912   0.197785    2.688088  
H    1.840073    -3.550245   1.25604   
H    2.669154    1.373222    1.045073  
H    4.43863     1.350309    -2.219055 
O    0.770033    2.641124    1.534824  
O    2.957685    2.297686    1.190635  
H    1.927748    -3.280107   -0.921635 
H    1.13005     -2.469751   -2.271014 
C    1.911386    3.071431    1.430268  
H    2.775499    -1.513481   0.50839   
C    2.273111    4.518382    1.556203  
H    2.995472    4.639106    2.367715  
H    2.757621    4.85383     0.635789  
H    1.379653    5.106796    1.75421   
H    -2.120474   -2.778538   -2.840529 
H    -0.381066   2.353177    -1.930709 
H    2.174025    2.32821     -2.596933 
Cl   5.281185    -0.778322   -0.541879 
N    -1.04152    0.895897    -0.615126 
C    -2.373911   1.391069    -0.61024  
C    -3.000055   1.613617    0.61653   
C    -3.059908   1.620089    -1.80403  
C    -4.310745   2.073604    0.648631  
H    -2.445108   1.446947    1.535527  
C    -4.377596   2.069797    -1.763471 
H    -2.570848   1.419656    -2.75359  
C    -5.004354   2.295382    -0.540729 
H    -4.792922   2.260196    1.602572  
H    -4.91474    2.238229    -2.690931 
H    -6.031057   2.644       -0.513183 
