61                                     
                                       
C    3.163772    1.183467    -1.631069 
C    1.873212    1.637832    -1.87542  
C    0.796324    1.02086     -1.232366 
C    0.964065    -0.066869   -0.347863 
C    2.266123    -0.481806   -0.083366 
C    3.346833    0.137602    -0.727621 
H    0.992856    -2.339453   2.602777  
C    -1.678514   -2.364794   1.349714  
C    -0.576183   1.483099    -1.333394 
Co   -0.723639   -0.739032   0.335006  
C    -2.436742   -2.051381   0.20466   
C    -1.564055   -2.176814   -0.93763  
C    -0.303391   -2.656112   -0.486261 
C    -0.33996    -2.697656   0.941205  
C    -2.142374   -2.324773   2.7738    
C    -3.905237   -1.754896   0.157484  
C    -1.951003   -1.944639   -2.366808 
C    0.829045    -3.056605   -1.379807 
C    0.754999    -3.123176   1.875216  
H    0.458351    -4.017211   2.432778  
H    -1.324392   -2.059715   3.45142   
H    -2.966556   -1.618875   2.916939  
H    -2.505397   -3.311269   3.081492  
H    -4.259698   -1.290052   1.080596  
H    -4.16796    -1.090639   -0.669517 
H    -4.456168   -2.692211   0.022451  
H    -2.7867     -1.243421   -2.43927  
H    -1.114574   -1.539346   -2.944389 
H    0.627159    -4.053497   -1.786532 
O    -0.409601   0.225896    2.02516   
H    -0.142736   1.178878    1.869705  
H    -1.114733   0.219252    2.690343  
H    1.67011     -3.367952   1.331641  
H    2.217961    1.577155    1.109273  
H    4.020731    1.638924    -2.113164 
O    0.228501    2.721128    1.5545    
O    2.440324    2.520091    1.25231   
H    1.780743    -3.097598   -0.847361 
H    0.946478    -2.36696    -2.21972  
C    1.341022    3.224349    1.467068  
H    2.472757    -1.291754   0.611333  
C    1.604709    4.69278     1.588976  
H    2.297973    4.865889    2.416267  
H    2.08824     5.052969    0.677491  
H    0.670363    5.222863    1.761392  
H    -2.259999   -2.882232   -2.840809 
H    -0.85856    2.346486    -1.940352 
H    1.711266    2.470884    -2.554766 
Br   5.090758    -0.457257   -0.348826 
N    -1.45427    0.863383    -0.622377 
C    -2.815324   1.272117    -0.650558 
C    -3.482236   1.460378    0.560392  
C    -3.487974   1.448605    -1.860829 
C    -4.820707   1.833291    0.560229  
H    -2.938513   1.335563    1.492686  
C    -4.83294    1.810702    -1.852653 
H    -2.96578    1.274899    -2.797916 
C    -5.500533   2.001661    -0.645721 
H    -5.335495   1.993049    1.501923  
H    -5.359082   1.937666    -2.792947 
H    -6.548406   2.281644    -0.643368 
