71                                     
                                       
C    2.791497    1.382817    -1.710709 
C    1.478801    1.77232     -1.936157 
C    0.444494    1.096558    -1.280428 
C    0.688748    0.013832    -0.407939 
C    2.017003    -0.324981   -0.169872 
C    3.081507    0.344009    -0.812195 
H    0.878212    -2.265441   2.553109  
C    -1.804431   -2.408475   1.347375  
C    -0.948035   1.491726    -1.346279 
Co   -0.945975   -0.735711   0.316121  
C    -2.600555   -2.130305   0.219406  
C    -1.747139   -2.210621   -0.940995 
C    -0.456195   -2.631078   -0.517446 
C    -0.46059    -2.67767    0.909761  
C    -2.239171   -2.393007   2.781234  
C    -4.082235   -1.903878   0.203291  
C    -2.173574   -1.992861   -2.361231 
C    0.674417    -2.97598    -1.435903 
C    0.671562    -3.053138   1.820483  
H    0.434488    -3.968832   2.37158   
H    -1.422876   -2.081356   3.440836  
H    -3.097417   -1.733068   2.94209   
H    -2.540326   -3.397498   3.097415  
H    -4.439381   -1.458266   1.134838  
H    -4.393173   -1.250551   -0.615718 
H    -4.59129    -2.865702   0.076326  
H    -3.039847   -1.327813   -2.41414  
H    -1.367422   -1.549871   -2.954055 
H    0.505321    -3.974443   -1.853574 
O    -0.627689   0.235302    2.0013    
H    -0.384204   1.192642    1.839368  
H    -1.32776    0.218722    2.671493  
H    1.590234    -3.238724   1.2594    
H    1.944094    1.732123    0.969966  
H    3.604633    1.88042     -2.229063 
O    -0.082083   2.757427    1.540687  
O    2.123738    2.679484    1.147509  
H    1.633804    -2.986511   -0.915711 
H    0.754088    -2.269637   -2.266192 
C    0.999919    3.318032    1.428294  
H    2.264103    -1.111304   0.541231  
C    1.193724    4.794165    1.589693  
H    1.930761    4.977881    2.375569  
H    1.593854    5.211029    0.661935  
H    0.246015    5.265907    1.840818  
H    -2.451976   -2.941465   -2.83236  
H    -1.287102   2.341082    -1.944164 
H    1.259307    2.594592    -2.612796 
C    4.48417     -0.031762   -0.524221 
C    4.845867    -1.374723   -0.36609  
C    5.46894     0.955249    -0.39737  
C    6.163941    -1.72394    -0.095284 
H    4.095231    -2.151334   -0.48931  
C    6.785656    0.605561    -0.119871 
H    5.192532    2.002421    -0.485926 
C    7.136393    -0.734261   0.029518  
H    6.434723    -2.769492   0.01038   
H    7.538133    1.380266    -0.014121 
H    8.16497     -1.006636   0.242289  
N    -1.779082   0.830674    -0.613956 
C    -3.157697   1.173515    -0.610082 
C    -3.807311   1.324906    0.615535  
C    -3.865292   1.322543    -1.804279 
C    -5.161896   1.632704    0.646371  
H    -3.238297   1.222131    1.535391  
C    -5.225401   1.620174    -1.765424 
H    -3.35596    1.17776     -2.753279 
C    -5.875266   1.77369     -0.543569 
H    -5.663156   1.763083    1.599866  
H    -5.777207   1.725838    -2.693613 
H    -6.93505    2.003092    -0.51711  
