70                                     
                                       
C    1.434346    2.191165    -1.614977 
C    0.056561    2.352897    -1.715525 
C    -0.792617   1.436282    -1.089748 
C    -0.278722   0.340185    -0.364628 
C    1.099659    0.226832    -0.23761  
C    1.967538    1.135406    -0.869848 
H    0.650297    -2.270896   2.180741  
H    2.10115     2.894972    -2.105075 
C    -2.257211   1.560136    -1.044011 
Co   -1.630298   -0.861259   0.291555  
C    -1.999963   -2.836087   1.048866  
C    -2.9157     -2.573601   0.01171   
C    -2.153302   -2.265383   -1.173476 
C    -0.773518   -2.435748   -0.870317 
C    -0.666049   -2.70764    0.52713   
C    -2.316707   -3.163266   2.476124  
C    -4.408204   -2.699006   0.078729  
C    -2.724825   -1.922328   -2.516606 
C    0.343056    -2.356912   -1.865128 
C    0.582339    -2.95056    1.324378  
H    0.596727    -3.975287   1.709592  
H    -1.589643   -2.710148   3.157797  
H    -3.320932   -2.836255   2.76141   
H    -2.270777   -4.246263   2.633642  
H    -4.806398   -2.433287   1.063007  
H    -4.902539   -2.07848    -0.673067 
H    -4.698927   -3.736519   -0.117766 
H    -3.638417   -1.32721    -2.422248 
H    -2.012502   -1.345059   -3.112053 
O    -1.43878    -0.107644   2.102543  
H    -1.393331   0.890748    2.067635  
H    -2.114213   -0.339714   2.758259  
H    0.375641    -3.289591   -2.438645 
H    0.672614    2.085252    1.136575  
H    -6.046125   1.63957     -0.424004 
O    -1.47133    2.516008    1.969674  
H    -2.52522    3.341917    -2.220264 
H    1.48071     -2.815476   0.71816   
C    -4.98186    1.637044    -0.626053 
C    -4.384215   2.614878    -1.418026 
H    -2.973275   -2.829363   -3.077541 
C    -4.175531   0.643051    -0.093686 
C    -3.012476   2.581039    -1.621924 
H    1.554095    -0.576738   0.336     
N    -2.855872   0.591975    -0.309562 
O    0.64382     3.021883    1.425001  
H    1.313778    -2.22137    -1.384518 
H    0.203513    -1.531285   -2.567833 
C    -0.565034   3.331087    1.862224  
H    -4.98254    3.403328    -1.862876 
C    -0.704363   4.781477    2.209245  
H    0.036236    5.043385    2.969228  
H    -0.493675   5.388434    1.325115  
H    -1.709421   4.978588    2.576386  
H    -4.591677   -0.142336   0.528738  
C    3.428307    0.961456    -0.766216 
H    4.049285    1.736423    -1.235646 
H    -0.340382   3.195144    -2.274983 
N    3.92386     -0.040124   -0.156727 
C    5.324541    -0.205378   -0.115264 
C    5.871865    -0.752349   1.049227  
C    6.161933    0.112518    -1.191128 
C    7.245339    -0.929875   1.157192  
H    5.20334     -1.016363   1.862285  
C    7.533914    -0.086877   -1.083695 
H    5.734183    0.476682    -2.120737 
C    8.080287    -0.59747    0.091564  
H    7.665465    -1.339249   2.070242  
H    8.17766     0.148848    -1.92511  
H    9.151421    -0.751176   0.170721  
