68                                     
                                       
C    3.647296    0.601873    -1.30295  
C    2.470261    1.3063      -1.545843 
C    1.271685    0.806152    -1.005588 
C    1.22417     -0.383495   -0.235305 
C    2.41699     -1.031361   0.033891  
C    3.630322    -0.554111   -0.5104   
H    0.751959    -2.951466   2.415553  
C    -1.82983    -2.40084    1.091535  
C    -1.1e-05    1.484221    -1.086547 
Co   -0.580785   -0.844302   0.306731  
C    -2.472591   -1.841858   -0.030383 
C    -1.575984   -1.977881   -1.151914 
C    -0.429691   -2.701835   -0.722622 
C    -0.542906   -2.899255   0.687351  
C    -2.350867   -2.445933   2.49577   
C    -3.871797   -1.306924   -0.085841 
C    -1.849423   -1.525008   -2.554169 
C    0.667543    -3.176397   -1.623695 
C    0.423026    -3.600899   1.596862  
H    -0.040539   -4.488228   2.03971   
H    -1.535339   -2.394752   3.224464  
H    -3.058883   -1.63551    2.69653   
H    -2.880308   -3.388044   2.674088  
H    -4.191638   -0.894128   0.874045  
H    -3.985634   -0.521384   -0.837042 
H    -4.558245   -2.120566   -0.344971 
H    -2.562606   -0.696422   -2.56743  
H    -0.931902   -1.192474   -3.049401 
H    0.328776    -4.069225   -2.160508 
O    -0.21325    -0.135675   2.109899  
H    0.184898    0.782057    2.071037  
H    -0.950867   -0.110639   2.738425  
H    1.310623    -3.933206   1.054279  
H    2.574587    0.897813    1.371135  
N    -1.002427   0.941966    -0.47536  
O    0.784791    2.283772    1.966284  
H    1.570558    -3.43695    -1.069523 
H    0.938928    -2.41893    -2.363743 
C    1.965749    2.603369    1.952553  
O    2.942268    1.764237    1.648636  
C    2.459343    3.979349    2.279059  
H    3.127137    3.924911    3.142991  
H    3.041641    4.368995    1.440471  
H    1.616186    4.631893    2.496156  
H    -2.273452   -2.340655   -3.149394 
H    -0.126523   2.442494    -1.594923 
C    -2.27582    1.569144    -0.498439 
C    -2.96492    1.735355    0.703875  
C    -2.853321   1.983783    -1.700192 
C    -4.225596   2.319573    0.704614  
H    -2.494524   1.424923    1.632709  
C    -4.121205   2.560458    -1.693099 
H    -2.320225   1.827816    -2.634288 
C    -4.809591   2.727073    -0.49432  
H    -4.754109   2.458707    1.642074  
H    -4.572675   2.873142    -2.628879 
H    -5.798064   3.173611    -0.492891 
O    4.71849     -1.277006   -0.208405 
C    5.978997    -0.848268   -0.701945 
H    6.703727    -1.571098   -0.331715 
H    5.989148    -0.844618   -1.796777 
H    6.226524    0.149157    -0.323932 
H    2.468423    -1.933183   0.6389    
H    4.577646    0.972527    -1.716913 
C    2.504877    2.581228    -2.35119  
H    1.823879    2.534535    -3.206562 
H    2.211624    3.442924    -1.741254 
H    3.508824    2.772857    -2.734364 
