63                                     
                                       
C    -1.852798   -3.602632   1.467354  
C    -1.985543   -2.251307   1.77259   
C    -1.141075   -1.320569   1.159114  
C    -0.126702   -1.723649   0.268692  
C    -0.048082   -3.076385   -0.062803 
C    -0.90461    -4.012748   0.530768  
H    2.63361     -1.58628    -2.795516 
C    2.936234    -0.928253   -0.767454 
C    -1.32346    0.138328    1.242382  
Co   1.004441    -0.26395    -0.270365 
C    2.936409    0.517051    -0.827821 
C    2.624069    1.008157    0.453022  
C    2.363681    -0.120429   1.306095  
C    2.678478    -1.306571   0.574046  
C    3.261355    1.301467    -2.063353 
C    2.613461    2.429291    0.92614   
C    1.990628    -0.050988   2.756455  
C    2.762712    -2.676068   1.16921   
C    3.256928    -1.822635   -1.927345 
H    4.304864    -1.709437   -2.22418  
H    2.742137    0.904472    -2.943396 
H    3.007323    2.359494    -1.958257 
H    4.333454    1.241825    -2.279122 
H    2.681133    3.142675    0.10288   
H    1.715055    2.665148    1.504048  
H    3.477135    2.58987     1.580674  
H    1.386927    0.837187    2.96585   
H    1.409276    -0.927685   3.05636   
H    3.721336    -2.768104   1.691899  
O    0.243971    -0.294444   -2.09335  
H    -0.739854   -0.440615   -2.017449 
H    0.349276    0.506656    -2.630025 
H    -3.286066   2.640323    2.44068   
H    -2.117622   -2.541032   -1.072404 
H    3.095397    -2.873817   -1.678352 
O    -2.37992    -0.352744   -1.842031 
C    -2.521676   2.125126    1.865329  
H    2.882354    -0.005536   3.390894  
C    -0.730633   2.164047    0.225559  
C    -2.335335   0.777658    1.999765  
H    -2.507427   -4.330311   1.934429  
H    0.694418    -3.419899   -0.780568 
N    -0.510265   0.830215    0.442033  
O    -3.064925   -2.413293   -1.288239 
H    2.721044    -3.461011   0.412284  
H    1.964294    -2.858879   1.892211  
C    -3.27484    -1.172615   -1.696691 
C    -1.740669   2.860701    0.939542  
C    -4.721389   -0.88471    -1.959747 
H    -5.090364   -1.568638   -2.728482 
H    -5.301338   -1.069723   -1.052256 
H    -4.839093   0.146942    -2.284806 
H    -2.951692   0.194997    2.673336  
H    -0.828324   -5.062185   0.262562  
H    -2.760909   -1.936466   2.464694  
C    0.021816    2.861065    -0.750714 
C    -1.946966   4.240047    0.689678  
C    -1.199086   4.895764    -0.254355 
H    -1.364125   5.949519    -0.449785 
C    -0.212602   4.192853    -0.985218 
H    0.794727    2.329781    -1.296784 
H    -2.715948   4.761872    1.251763  
H    0.366099    4.715903    -1.740024 
