54                                     
                                       
C    2.670077    -2.047569   -2.040011 
C    2.524281    -0.673283   -1.883288 
C    1.435416    -0.18777    -1.155854 
C    0.457758    -1.03276    -0.590284 
C    0.655917    -2.407827   -0.731078 
C    1.748124    -2.911995   -1.449887 
H    -1.886728   -2.885189   1.70429   
C    -2.95907    -0.21574    1.103905  
C    1.220115    1.215272    -0.821463 
Co   -0.985981   -0.066346   0.286565  
C    -2.895596   0.912161    0.262883  
C    -2.507179   0.455839    -1.050153 
C    -2.411553   -0.962027   -1.015959 
C    -2.61057    -1.379884   0.336692  
C    -3.283307   -0.234703   2.566113  
C    -3.242367   2.323654    0.631242  
C    -2.315189   1.322947    -2.258061 
C    -2.159241   -1.836455   -2.204786 
C    -2.599583   -2.778821   0.879543  
H    -3.590266   -3.050888   1.25762   
H    -2.681687   -0.978654   3.098152  
H    -3.133715   0.743034    3.033356  
H    -4.333949   -0.506939   2.713852  
H    -2.926592   2.578515    1.647836  
H    -2.793805   3.04058     -0.06071  
H    -4.327342   2.464488    0.583859  
H    -1.874313   2.288319    -1.991735 
H    -1.652915   0.84488     -2.984523 
H    -3.084014   -1.92922    -2.784218 
O    -0.147722   -0.410089   2.037391  
H    0.836578    -0.235804   1.995131  
H    -0.489223   0.098729    2.78922   
H    -2.334749   -3.504999   0.108209  
H    2.420508    -1.834581   0.779571  
H    3.509099    -2.445018   -2.60042  
O    2.405999    0.203186    1.930421  
N    0.171194    1.516356    -0.077652 
O    3.330727    -1.661881   1.098934  
H    -1.842341   -2.839038   -1.913679 
H    -1.387997   -1.422366   -2.859042 
C    3.389679    -0.49174    1.712863  
H    -0.046099   -3.109037   -0.284777 
C    4.783418    -0.109705   2.104712  
H    5.210304    -0.893504   2.735461  
H    5.404255    -0.037787   1.207863  
H    4.770704    0.840168    2.635109  
H    -3.272597   1.516132    -2.752953 
H    1.877927    -3.985453   -1.548723 
C    0.1258      2.852539    0.24204   
H    3.256023    0.00706     -2.313168 
C    1.148526    3.583404    -0.269382 
S    2.210803    2.569695    -1.17724  
H    -0.676972   3.233299    0.858978  
H    1.335425    4.642068    -0.165107 
