55                                     
                                       
C    2.859714    -1.962937   -1.860211 
C    2.592993    -0.5963     -1.900473 
C    1.479384    -0.126981   -1.213194 
C    0.593997    -0.947933   -0.50442  
C    0.915399    -2.306568   -0.459171 
C    2.035255    -2.815153   -1.128843 
H    -1.547309   -2.5335     2.22244   
C    -2.831367   -0.112273   1.180872  
N    1.170992    1.25966     -1.130446 
Co   -0.90552    0.011049    0.272154  
C    -2.873416   0.838801    0.143104  
C    -2.490043   0.170616    -1.077268 
C    -2.296716   -1.208021   -0.784973 
C    -2.424435   -1.376577   0.627076  
C    -3.10985    0.122319    2.633772  
C    -3.288888   2.274553    0.257478  
C    -2.392081   0.808052    -2.43054  
C    -2.015643   -2.270734   -1.800954 
C    -2.284854   -2.642584   1.420169  
H    -3.240478   -2.915839   1.878932  
H    -2.450246   -0.478669   3.267951  
H    -3.003969   1.175963    2.908242  
H    -4.137707   -0.172557   2.870925  
H    -2.971215   2.724752    1.203085  
H    -2.886659   2.87323     -0.56335  
H    -4.38022    2.351463    0.210758  
H    -1.982274   1.820482    -2.365818 
H    -1.742934   0.228648    -3.091947 
H    -2.945924   -2.522371   -2.321352 
O    0.00671     0.005282    2.023875  
H    0.968586    0.249999    1.901375  
H    -0.348748   0.607432    2.696306  
H    -1.975126   -3.478061   0.788923  
H    2.659657    -1.400619   0.892558  
H    3.723338    -2.35576    -2.385359 
O    2.490908    0.798102    1.677272  
N    0.107952    1.579687    -0.369087 
O    3.552867    -1.110549   1.172588  
H    -1.631074   -3.182787   -1.342176 
H    -1.287586   -1.941012   -2.546038 
C    3.523135    0.148349    1.578364  
H    0.284486    -2.99081    0.104269  
C    4.882585    0.687415    1.900947  
H    5.329895    0.082446    2.694076  
H    5.527406    0.60189     1.022867  
H    4.802602    1.725168    2.217927  
H    -3.378526   0.873531    -2.901094 
H    2.261102    -3.875425   -1.079083 
C    0.05283     2.909305    -0.332526 
H    3.24883     0.074336    -2.447044 
C    1.09931     3.45847     -1.085065 
H    -0.726278   3.408034    0.225975  
C    1.794166    2.368695    -1.57423  
H    2.673906    2.309058    -2.196739 
H    1.32017     4.501451    -1.247389 
