59                                     
                                       
C    3.257155    -0.805552   -1.320728 
C    2.509659    0.331361    -1.626351 
C    1.238975    0.46742     -1.089682 
C    0.650046    -0.496673   -0.257831 
C    1.427632    -1.601159   0.065476  
C    2.723278    -1.772211   -0.463313 
H    -1.00619    -2.317256   2.632168  
C    -2.986792   -0.765852   1.129199  
N    0.438742    1.627346    -1.288663 
Co   -1.168783   -0.059634   0.264773  
C    -3.281053   -0.078285   -0.064698 
C    -2.566915   -0.735102   -1.133084 
C    -1.901174   -1.868046   -0.590133 
C    -2.088967   -1.847505   0.826059  
C    -3.46619    -0.427846   2.507365  
C    -4.209257   1.088144    -0.223886 
C    -2.588815   -0.332088   -2.576745 
C    -1.149914   -2.887958   -1.387829 
C    -1.564899   -2.82368    1.837907  
H    -2.389165   -3.371626   2.305637  
H    -2.690518   -0.616079   3.256656  
H    -3.791795   0.613614    2.585838  
H    -4.324122   -1.055983   2.770168  
H    -4.165616   1.77345     0.628344  
H    -3.987789   1.65271     -1.13278  
H    -5.242562   0.734838    -0.305069 
H    -2.590629   0.756393    -2.687314 
H    -1.714181   -0.718152   -3.106301 
H    -1.865835   -3.557589   -1.876374 
O    -0.508519   0.592495    2.00808   
H    0.287376    1.182421    1.863644  
H    -1.139085   1.100566    2.542192  
H    -0.902533   -3.559859   1.377874  
H    2.47628     0.087391    1.345241  
H    4.248811    -0.915664   -1.74095  
O    1.516328    2.207496    1.568343  
N    -0.74139    1.641118    -0.642802 
O    3.193638    0.720536    1.559973  
H    -0.494388   -3.494847   -0.761651 
H    -0.533464   -2.425315   -2.162439 
C    2.710417    1.949655    1.639582  
H    1.058608    -2.384341   0.723588  
C    3.777252    2.984225    1.824214  
H    4.345905    2.758378    2.729964  
H    4.473417    2.942388    0.982685  
H    3.325658    3.971406    1.897217  
H    -3.482403   -0.722907   -3.074359 
C    -1.285846   2.83658     -0.868754 
C    -0.44125    3.607168    -1.675885 
H    -2.248201   3.086208    -0.445562 
C    0.654196    2.797382    -1.917765 
H    1.555638    2.973139    -2.48481  
H    -0.602203   4.612478    -2.031303 
H    2.937293    1.091381    -2.273606 
O    3.362252    -2.896001   -0.083645 
C    4.679256    -3.107713   -0.563537 
H    5.348575    -2.303607   -0.238155 
H    5.006311    -4.052157   -0.132066 
H    4.692128    -3.180322   -1.656587 
