58                                     
                                       
C    -3.072378   1.486001    -1.599553 
C    -2.583705   0.199518    -1.796753 
C    -1.391967   -0.152904   -1.172152 
C    -0.648408   0.724896    -0.378682 
C    -1.196236   1.994801    -0.179033 
C    -2.400986   2.39761     -0.776582 
H    1.265265    2.332999    2.515096  
C    2.911945    0.308911    1.183135  
N    -0.850379   -1.466431   -1.249352 
Co   1.011211    -0.040172   0.278186  
C    3.088888    -0.493628   0.039636  
C    2.563477    0.234132    -1.090463 
C    2.145327    1.515517    -0.635597 
C    2.279964    1.539024    0.785385  
C    3.264664    -0.039655   2.596532  
C    3.748744    -1.838193   -0.021387 
C    2.539848    -0.25109    -2.508715 
C    1.660049    2.62426     -1.516418 
C    1.947424    2.661434    1.723755  
H    2.854888    3.044361    2.201579  
H    2.521389    0.349365    3.299934  
H    3.360465    -1.119526   2.742134  
H    4.226236    0.410642    2.865339  
H    3.544627    -2.442467   0.867925  
H    3.429364    -2.400039   -0.902435 
H    4.834892    -1.716837   -0.09018  
H    2.304839    -1.318486   -2.560871 
H    1.787773    0.283301    -3.094634 
H    2.520434    3.097761    -2.00135  
O    0.157543    -0.387003   2.024627  
H    -0.758696   -0.763299   1.886156  
H    0.621673    -1.002559   2.613496  
H    1.477781    3.495825    1.198694  
H    -2.702755   0.686171    1.055606  
H    -4.002554   1.780954    -2.07644  
O    -2.1871     -1.517503   1.646481  
N    0.268531    -1.681026   -0.532754 
O    -3.534813   0.245224    1.329049  
H    1.128344    3.391682    -0.951755 
H    0.987221    2.260029    -2.296505 
C    -3.306561   -1.024215   1.624352  
H    -0.675476   2.707913    0.45872   
C    -4.559882   -1.785903   1.927781  
H    -5.065363   -1.32154    2.778647  
H    -5.238824   -1.727869   1.073529  
H    -4.316627   -2.82207    2.153606  
H    3.511813    -0.096438   -2.988479 
C    0.554255    -2.97644    -0.652688 
H    -3.131883   -0.503677   -2.416444 
C    -0.397358   -3.609151   -1.462415 
H    1.420037    -3.392413   -0.157744 
C    -1.281375   -2.60786    -1.819401 
H    -2.171911   -2.630722   -2.428852 
H    -0.438216   -4.64897    -1.745293 
C    -2.971488   3.771497    -0.537805 
H    -2.306114   4.376488    0.082346  
H    -3.127762   4.299361    -1.483284 
H    -3.941115   3.709774    -0.033672 
