58                                     
                                       
C    3.021566    0.275481    -1.461483 
C    2.006393    1.199092    -1.703352 
C    0.764754    0.977504    -1.121112 
C    0.457707    -0.137182   -0.328183 
C    1.50367     -1.019734   -0.079877 
C    2.771245    -0.816906   -0.640508 
H    -0.601725   -2.395353   2.562876  
C    -2.945282   -1.350715   1.149183  
N    -0.305485   1.903378    -1.243939 
Co   -1.385741   -0.193599   0.272226  
C    -3.432778   -0.729201   -0.01677  
C    -2.60404    -1.156599   -1.118995 
C    -1.665462   -2.105388   -0.62494  
C    -1.814501   -2.167279   0.793519  
C    -3.45766    -1.18194    2.54633   
C    -4.625224   0.172939    -0.122213 
C    -2.766108   -0.734326   -2.548241 
C    -0.706502   -2.888529   -1.466605 
C    -1.035272   -3.005661   1.763543  
H    -1.683261   -3.75494    2.229388  
H    -2.640207   -1.19059    3.27435   
H    -4.030942   -0.258117   2.665802  
H    -4.123706   -2.012678   2.803058  
H    -4.739968   0.813967    0.757257  
H    -4.56853    0.808193    -1.00943  
H    -5.537922   -0.425685   -0.210103 
H    -3.046067   0.320708    -2.623309 
H    -1.838017   -0.872888   -3.108462 
H    -1.240053   -3.72766    -1.925784 
O    -0.822875   0.519181    2.027498  
H    -0.154922   1.252431    1.903127  
H    -1.5225     0.87276     2.598931  
H    -0.222581   -3.540962   1.267956  
H    2.310817    0.758703    1.344444  
H    4.004858    0.415484    -1.89571  
O    0.816522    2.538419    1.617045  
N    -1.428235   1.597795    -0.564057 
O    2.835435    1.569315    1.501252  
H    0.119464    -3.297706   -0.882169 
H    -0.277854   -2.281597   -2.267695 
C    2.037339    2.618608    1.621544  
H    1.349209    -1.891603   0.552969  
C    2.789906    3.905218    1.761924  
H    3.418827    3.857323    2.654873  
H    3.453321    4.035814    0.903372  
H    2.091017    4.735664    1.837448  
H    -3.545896   -1.324768   -3.040226 
C    -2.257307   2.626303    -0.720224 
H    2.19863     2.067537    -2.32539  
C    -1.660966   3.615189    -1.515589 
H    -3.235145   2.613431    -0.260314 
C    -0.411515   3.11566     -1.825148 
H    0.394672    3.532662    -2.409392 
H    -2.080842   4.561012    -1.819138 
C    3.865694    -1.781397   -0.275078 
F    4.949084    -1.626219   -1.03701  
F    3.447167    -3.049136   -0.394574 
F    4.231946    -1.60846    1.004302  
