68                                     
                                       
C    1.440297    2.170643    -1.609859 
C    0.070201    2.392833    -1.728516 
C    -0.792629   1.490542    -1.118966 
C    -0.361685   0.364296    -0.401082 
C    1.01169     0.198107    -0.273447 
C    1.923086    1.082931    -0.87928  
H    0.234607    -2.198721   2.364045  
C    -2.365429   -2.623901   1.102217  
N    -2.203424   1.656051    -1.131251 
Co   -1.80549    -0.750135   0.253689  
C    -3.19955    -2.349751   0.000919  
C    -2.353376   -2.186759   -1.157077 
C    -1.01063    -2.446771   -0.764797 
C    -0.998793   -2.633949   0.650447  
C    -2.784642   -2.827645   2.525667  
C    -4.69729    -2.285706   0.000466  
C    -2.823901   -1.879889   -2.546935 
C    0.160885    -2.513627   -1.694624 
C    0.184871    -2.907747   1.53095   
H    0.124422    -3.916389   1.952312  
H    -2.061455   -2.388714   3.220536  
H    -3.773492   -2.405918   2.728033  
H    -2.835931   -3.898096   2.751718  
H    -5.09533    -1.86457    0.928822  
H    -5.071202   -1.69179    -0.837185 
H    -5.113879   -3.292909   -0.105154 
H    -3.656824   -1.170473   -2.538683 
H    -2.021338   -1.443299   -3.146691 
H    0.150271    -3.480412   -2.209442 
O    -1.643722   0.090958    2.034598  
H    -1.545726   1.080993    1.934814  
H    -2.380587   -0.05591    2.648117  
H    1.123234    -2.838689   0.976561  
H    0.670736    2.048488    1.174357  
H    2.138054    2.856737    -2.081279 
O    -1.507198   2.70171     1.722767  
O    0.697982    2.991043    1.44132   
H    1.112323    -2.424279   -1.167444 
H    0.125044    -1.726156   -2.451353 
C    -0.521212   3.426521    1.713938  
H    1.428849    -0.630932   0.29258   
C    -0.561809   4.894293    2.00832   
H    0.082871    5.106896    2.865198  
H    -0.163209   5.44869     1.155068  
H    -1.584178   5.20038     2.220184  
H    -3.16271    -2.790543   -3.051701 
N    -2.909102   0.731131    -0.451867 
C    3.374527    0.852657    -0.758072 
H    4.029752    1.60011     -1.225811 
N    3.825555    -0.161169   -0.135195 
C    5.219135    -0.377347   -0.079311 
C    5.738815    -0.923199   1.098162  
C    6.074296    -0.109378   -1.154616 
C    7.104095    -1.149639   1.21821   
H    5.056458    -1.147794   1.911592  
C    7.43744     -0.357057   -1.034582 
H    5.66571     0.254153    -2.093108 
C    7.957436    -0.867037   0.152728  
H    7.503169    -1.558128   2.141059  
H    8.094499    -0.159505   -1.875557 
H    9.021613    -1.058803   0.241796  
H    -0.298906   3.250733    -2.281965 
C    -3.013276   2.622415    -1.607618 
C    -4.182835   1.113585    -0.501985 
C    -4.303335   2.306947    -1.227202 
H    -5.202633   2.862224    -1.441345 
H    -2.623222   3.45386     -2.174727 
H    -4.94875    0.522414    -0.020582 
