58                                     
                                       
C    2.791752    -2.099786   -1.458129 
C    2.616664    -0.716647   -1.582754 
C    1.465311    -0.18071    -0.988593 
C    0.493219    -0.957956   -0.339042 
C    0.742046    -2.323628   -0.210862 
C    1.889112    -2.897732   -0.76631  
H    -1.956836   -2.488474   2.173929  
C    -3.073745   -0.053625   0.973022  
N    1.175291    1.222483    -0.935184 
Co   -1.058438   0.02105     0.2714    
C    -2.98988    0.880418    -0.077286 
C    -2.489919   0.186163    -1.238945 
C    -2.35825    -1.192016   -0.908472 
C    -2.638613   -1.335256   0.482572  
C    -3.500173   0.208101    2.384952  
C    -3.395733   2.322676    -0.031699 
C    -2.239572   0.797755    -2.584547 
C    -1.990631   -2.274391   -1.875148 
C    -2.614687   -2.590593   1.304169  
H    -3.618475   -2.8288     1.670282  
H    -2.922614   -0.394306   3.093576  
H    -3.403749   1.263728    2.655214  
H    -4.552611   -0.065405   2.516404  
H    -3.196573   2.780175    0.942341  
H    -2.883956   2.907263    -0.800053 
H    -4.470987   2.412128    -0.21888  
H    -1.832809   1.809419    -2.49381  
H    -1.525674   0.202827    -3.160035 
H    -2.861018   -2.509754   -2.496902 
O    -0.335146   0.007071    2.110754  
H    0.637662    0.233149    2.08924   
H    -0.747984   0.617949    2.741181  
H    -2.269687   -3.445498   0.718803  
H    2.440532    -1.405938   1.197052  
H    3.675035    -2.548565   -1.902076 
O    2.184493    0.772496    2.019457  
N    0.04467     1.544408    -0.271038 
O    3.308915    -1.10753    1.540564  
H    -1.683965   -3.189611   -1.366421 
H    -1.173343   -1.971558   -2.534383 
C    3.229471    0.138006    1.980288  
H    0.032787    -2.955104   0.31935   
C    4.552412    0.682319    2.425188  
H    4.925377    0.079175    3.257438  
H    5.277737    0.598795    1.6123    
H    4.439405    1.719239    2.734863  
H    -3.167737   0.859329    -3.162148 
C    -0.0122     2.871553    -0.213686 
C    1.099444    3.429987    -0.852097 
H    -0.841043   3.359603    0.278813  
C    1.834876    2.3478      -1.294013 
H    2.766126    2.318735    -1.830381 
H    1.339581    4.474093    -0.974881 
H    2.074219    -3.962273   -0.665319 
C    3.662385    0.084878    -2.315005 
H    3.230653    0.679644    -3.126175 
H    4.203423    0.760332    -1.642437 
H    4.398773    -0.587076   -2.75895  
