71                                     
                                       
C    -0.030581   3.232462    -0.860754 
C    -0.856115   2.11874     -0.98416  
C    -0.359622   0.855033    -0.651301 
C    0.971123    0.664978    -0.209705 
C    1.759491    1.801989    -0.044166 
C    1.261819    3.06832     -0.374666 
H    3.829769    -1.232246   2.428276  
C    3.508293    -1.625347   0.336699  
C    -1.124123   -0.388548   -0.56401  
Co   1.451414    -1.199265   0.123997  
C    2.769945    -2.871477   0.323001  
C    2.11594     -2.974568   -0.920595 
C    2.36495     -1.766156   -1.6528   
C    3.321069    -0.99512    -0.914202 
C    2.792046    -3.871814   1.439705  
C    1.299875    -4.111499   -1.454469 
C    1.851368    -1.45901    -3.026715 
C    4.032706    0.208139    -1.446239 
C    4.363807    -1.159618   1.47598   
H    5.270561    -1.768776   1.55146   
H    2.712002    -3.387885   2.419543  
H    1.987348    -4.605927   1.352222  
H    3.740106    -4.420282   1.439568  
H    1.215219    -4.929776   -0.736956 
H    0.291201    -3.79677    -1.738026 
H    1.787569    -4.507942   -2.351279 
H    0.850082    -1.874949   -3.171144 
H    1.793246    -0.379996   -3.193269 
H    4.798035    -0.131747   -2.152911 
O    1.069785    -0.980948   2.063394  
H    0.228081    -0.459704   2.173016  
H    0.930769    -1.812506   2.544249  
H    4.66911     -0.11874    1.348463  
H    0.312652    2.01669     1.77068   
H    2.50579     -1.884651   -3.795266 
O    -1.242458   0.365562    2.348439  
H    -0.392738   4.221413    -1.116245 
H    2.774507    1.730362    0.335379  
N    -0.461387   -1.482775   -0.200099 
O    -0.409194   2.446039    2.275287  
H    4.540725    0.773187    -0.66233  
H    3.361843    0.884776    -1.980443 
C    -1.34612    1.563823    2.577802  
C    -1.402593   -2.460978   0.067173  
C    -2.547452   2.197468    3.211515  
H    -2.231573   2.888066    3.996139  
H    -3.076853   2.780381    2.450983  
H    -3.202533   1.428652    3.618537  
C    -2.672811   -1.929468   -0.202876 
H    -1.874903   2.254405    -1.330143 
C    -1.277858   -3.760411   0.568088  
C    -3.847299   -2.658321   -0.029878 
C    -3.706106   -3.9506     0.451712  
H    -4.590528   -4.558379   0.608033  
C    -2.441049   -4.489901   0.754404  
H    -0.303479   -4.175288   0.805258  
H    -4.818135   -2.227665   -0.250948 
H    -2.379027   -5.500398   1.143619  
N    -2.459868   -0.616962   -0.61407  
C    -3.503043   0.342488    -0.817685 
C    -3.866249   0.718217    -2.106676 
C    -4.138868   0.869384    0.303428  
C    -4.871944   1.667592    -2.271707 
H    -3.359741   0.277089    -2.959626 
C    -5.148075   1.811286    0.126997  
H    -3.832467   0.530994    1.28951   
C    -5.508268   2.213935    -1.158362 
H    -5.162479   1.975197    -3.270536 
H    -5.655272   2.228712    0.991026  
H    -6.293577   2.950198    -1.293442 
Br   2.368706    4.5743      -0.145209 
