66                                     
                                       
C    3.5419      -0.483303   -1.268783 
C    2.632643    0.531797    -1.54062  
C    1.338859    0.447163    -1.031771 
C    0.89417     -0.633672   -0.240146 
C    1.833259    -1.604536   0.074567  
C    3.146628    -1.545504   -0.443259 
H    -0.174639   -2.784431   2.434773  
C    -2.5811     -1.6253     1.1423    
C    0.362154    1.514294    -1.076872 
Co   -0.993519   -0.483056   0.25771   
C    -3.097171   -0.973634   0.003151  
C    -2.306971   -1.391836   -1.12664  
C    -1.365271   -2.355462   -0.677238 
C    -1.484173   -2.455629   0.74617   
C    -3.069544   -1.462992   2.548938  
C    -4.35674    -0.154696   -0.018626 
C    -2.48138    -0.978911   -2.557748 
C    -0.463076   -3.139972   -1.578472 
C    -0.723583   -3.354446   1.677081  
H    -1.410005   -4.028029   2.199901  
H    -2.248297   -1.537787   3.268732  
H    -3.583203   -0.506668   2.69255   
H    -3.786166   -2.254883   2.793795  
H    -4.298905   0.754501    0.587243  
H    -4.625534   0.133784    -1.03636  
H    -5.184599   -0.753397   0.375003  
H    -3.145904   -0.11796    -2.650069 
H    -1.522135   -0.707884   -3.010458 
H    -1.049225   -3.915487   -2.083887 
O    -0.472552   0.242229    2.023845  
H    0.1798      0.988639    1.907217  
H    -1.198035   0.587341    2.56762   
H    -0.008125   -3.97665    1.13553   
H    2.521621    0.343616    1.432111  
H    4.546126    -0.430647   -1.66979  
O    1.188404    2.264188    1.612629  
N    -0.818201   1.332241    -0.582311 
O    3.113799    1.118863    1.531529  
H    0.343364    -3.627966   -1.02928  
H    -0.008467   -2.506327   -2.344903 
C    2.412516    2.238131    1.555166  
H    1.600119    -2.458218   0.704921  
C    3.259942    3.467841    1.462621  
H    4.201108    3.328363    1.995391  
H    3.488734    3.637127    0.404846  
H    2.712303    4.324898    1.851364  
H    -2.907466   -1.798989   -3.145161 
C    -1.533953   2.627332    -0.607323 
H    2.931586    1.390395    -2.1357   
C    -0.401658   3.596344    -1.04405  
O    0.672969    2.737694    -1.486627 
H    -0.681273   4.245083    -1.875197 
H    -0.017262   4.192186    -0.211054 
O    3.947705    -2.561672   -0.083875 
C    5.286166    -2.567039   -0.556484 
H    5.828379    -1.683113   -0.204301 
H    5.743026    -3.465005   -0.144425 
H    5.314531    -2.608716   -1.650347 
C    -2.654858   2.595956    -1.642787 
H    -3.410458   1.858179    -1.367615 
H    -3.141043   3.574639    -1.705202 
H    -2.257183   2.34039     -2.630147 
C    -2.058431   2.972192    0.783201  
H    -2.566892   3.941257    0.772054  
H    -2.784061   2.220741    1.114151  
H    -1.233954   3.022715    1.500439  
