64                                     
                                       
C    -2.995666   -1.430373   -1.612258 
C    -1.716292   -1.961704   -1.713663 
C    -0.634452   -1.237793   -1.200109 
C    -0.780435   0.037955    -0.620464 
C    -2.067252   0.555488    -0.527045 
C    -3.148395   -0.186224   -1.002641 
H    -0.962331   2.514785    2.162053  
C    1.810507    2.318244    1.20017   
C    0.716892    -1.759324   -1.144795 
Co   0.852383    0.67252     0.200494  
C    2.658229    1.8822      0.165807  
C    1.911317    1.953356    -1.068068 
C    0.64716     2.544252    -0.788805 
C    0.54181     2.688306    0.626226  
C    2.112698    2.389751    2.664339  
C    4.112637    1.539416    0.276921  
C    2.427928    1.601008    -2.430353 
C    -0.351177   2.954249    -1.826048 
C    -0.610123   3.235819    1.41617   
H    -0.310876   4.144365    1.94863   
H    1.2731      2.009814    3.255356  
H    3.010423    1.822965    2.924032  
H    2.280025    3.430329    2.963099  
H    4.367035    1.12399     1.254724  
H    4.427819    0.820824    -0.483236 
H    4.701913    2.452804    0.138357  
H    3.206024    0.835107    -2.372804 
H    1.626426    1.223204    -3.07235  
H    -0.015666   3.889009    -2.288529 
O    0.145169    -0.061139   1.900995  
H    -0.791502   -0.376615   1.836831  
C    0.836089    -0.937226   2.791128  
H    -1.451899   3.498595    0.771729  
H    -4.561279   -1.207408   1.369883  
H    -3.863464   -1.972379   -1.970008 
O    -2.362722   -0.991528   1.995305  
O    -4.177944   -2.106746   1.345748  
H    -1.340818   3.129947    -1.401444 
H    -0.45244    2.20455     -2.614426 
C    -2.890054   -2.035352   1.648224  
H    -2.265991   1.50615     -0.040958 
C    -2.197058   -3.362618   1.551465  
H    -2.431537   -3.947982   2.446006  
H    -2.555842   -3.915673   0.682502  
H    -1.118615   -3.211646   1.493749  
H    2.860754    2.480318    -2.919443 
H    0.989655    -2.709744   -1.61038  
H    -1.566885   -2.938436   -2.16733  
Br   -4.894094   0.475501    -0.707053 
H    1.739728    -0.426345   3.128769  
H    0.19704     -1.143048   3.652713  
H    1.103762    -1.874635   2.292307  
N    1.597808    -1.070848   -0.498552 
C    2.951634    -1.51617    -0.504375 
C    3.669448    -1.574932   0.690332  
C    3.568374    -1.869872   -1.70785  
C    4.99011     -2.008897   0.683805  
H    3.193835    -1.278127   1.618752  
C    4.895349    -2.290697   -1.708419 
H    3.016183    -1.783496   -2.639835 
C    5.607145    -2.36543    -0.513998 
H    5.541276    -2.063441   1.616924  
H    5.372866    -2.554325   -2.646271 
H    6.641005    -2.693402   -0.516609 
