74                                     
                                       
C    2.722457    1.161979    -1.954382 
C    1.42365     1.612101    -2.137541 
C    0.385384    1.012949    -1.415865 
C    0.609518    -0.042262   -0.510205 
C    1.928515    -0.438515   -0.310679 
C    2.99521     0.135806    -1.033236 
H    0.897983    -2.009093   2.62345   
C    -1.857968   -2.178261   1.611313  
C    -0.996364   1.436566    -1.50403  
Co   -1.021527   -0.632009   0.35529   
C    -2.719386   -1.976947   0.51577   
C    -1.949399   -2.201814   -0.685553 
C    -0.645957   -2.621074   -0.307863 
C    -0.554707   -2.52469    1.114142  
C    -2.185193   -2.06628    3.067693  
C    -4.194478   -1.715035   0.572594  
C    -2.458848   -2.137791   -2.093986 
C    0.401698    -3.105685   -1.261003 
C    0.617135    -2.857385   1.989828  
H    0.375379    -3.697762   2.64882   
H    -1.415127   -1.503285   3.605123  
H    -3.153212   -1.588078   3.235627  
H    -2.229741   -3.06596    3.513866  
H    -4.472216   -1.108554   1.438601  
H    -4.555076   -1.198651   -0.319994 
H    -4.728086   -2.668991   0.647281  
H    -3.366682   -1.534023   -2.162656 
H    -1.711424   -1.705534   -2.767563 
H    0.153082    -4.125115   -1.57607  
O    -0.504106   0.480266    1.898781  
H    0.245707    1.078656    1.667652  
C    -1.413903   1.263094    2.680021  
H    -2.695709   -3.141763   -2.462299 
H    2.853119    1.713742    0.612467  
H    2.168471    -1.206347   0.422338  
O    0.978164    2.645365    1.591404  
H    1.391927    -3.127962   -0.802678 
H    0.461294    -2.479499   -2.15486  
C    2.045533    3.212635    1.429303  
O    3.098987    2.622109    0.881145  
C    2.316112    4.633348    1.821842  
H    3.140512    4.658672    2.539094  
H    2.629096    5.201953    0.942735  
H    1.421744    5.072324    2.259214  
H    3.536736    1.593276    -2.527654 
H    -1.31459    2.224312    -2.191219 
H    1.215751    2.416229    -2.838949 
C    4.3882      -0.309707   -0.793397 
C    4.678991    -1.664491   -0.59367  
C    5.432813    0.622002    -0.750189 
C    5.985338    -2.079696   -0.362996 
H    3.880147    -2.399257   -0.65368  
C    6.738245    0.205863    -0.512405 
H    5.216413    1.680089    -0.87304  
C    7.017617    -1.144999   -0.320438 
H    6.200107    -3.134391   -0.224713 
H    7.537762    0.938377    -0.471599 
H    8.037133    -1.469176   -0.139116 
H    1.490827    -3.1465     1.401179  
H    -2.288741   0.644826    2.885912  
H    -0.931419   1.537278    3.620317  
H    -1.701903   2.167506    2.138448  
N    -1.854983   0.858694    -0.730841 
C    -3.234709   1.181653    -0.88753  
C    -4.016652   1.478125    0.228853  
C    -3.813168   1.175985    -2.160424 
C    -5.364006   1.782776    0.070706  
H    -3.568126   1.474939    1.215224  
C    -5.165209   1.470814    -2.310388 
H    -3.208402   0.909583    -3.023014 
C    -5.943106   1.776618    -1.196766 
H    -5.964505   2.023203    0.941945  
H    -5.60985    1.455144    -3.299955 
H    -6.996808   2.005195    -1.314926 
