68                                     
                                       
C    3.527272    0.537417    -1.89945  
C    2.310602    1.187755    -2.065603 
C    1.192288    0.780171    -1.333806 
C    1.251448    -0.294012   -0.413489 
C    2.484597    -0.892733   -0.211623 
C    3.618004    -0.504693   -0.963535 
H    1.16106     -2.555614   2.494331  
C    -1.565342   -2.238526   1.427719  
C    -0.103413   1.409452    -1.427851 
Co   -0.493827   -0.701566   0.34284   
C    -2.358034   -1.805925   0.34547   
C    -1.595127   -2.030259   -0.860673 
C    -0.370304   -2.652653   -0.506696 
C    -0.308116   -2.707891   0.920923  
C    -1.92323    -2.245671   2.88118   
C    -3.779366   -1.332031   0.411216  
C    -2.048202   -1.768459   -2.265251 
C    0.630472    -3.180525   -1.487131 
C    0.779494    -3.288807   1.775368  
H    0.401694    -4.144752   2.344286  
H    -1.110467   -1.845067   3.495482  
H    -2.833641   -1.677339   3.085185  
H    -2.099511   -3.276935   3.206794  
H    -3.978907   -0.757042   1.319736  
H    -4.039604   -0.698475   -0.439944 
H    -4.453619   -2.195462   0.406762  
H    -2.89352    -1.077521   -2.290574 
H    -1.241013   -1.341972   -2.870657 
H    0.261289    -4.126038   -1.899583 
O    0.04351     0.227564    1.994392  
H    0.790158    0.848444    1.811118  
C    -0.834972   0.918702    2.891642  
H    -2.362904   -2.701792   -2.744291 
H    3.167301    1.257448    0.617232  
H    2.626992    -1.705779   0.496004  
O    1.524326    2.388397    1.779215  
H    1.59985     -3.369106   -1.023134 
H    0.787672    -2.487811   -2.318496 
C    2.62242     2.838097    1.494417  
O    3.535893    2.137466    0.837655  
C    3.084921    4.219577    1.843394  
H    3.966999    4.151866    2.485537  
H    3.38112     4.747727    0.933908  
H    2.288568    4.757077    2.354039  
H    4.390003    0.849308    -2.474229 
H    -0.284712   2.255683    -2.095116 
H    2.23679     2.013642    -2.768729 
O    4.740882    -1.191371   -0.703699 
C    5.928335    -0.834601   -1.396655 
H    6.206407    0.202835    -1.182734 
H    6.700936    -1.50557    -1.025817 
H    5.807581    -0.973173   -2.475967 
H    1.617821    -3.64352    1.172046  
H    -1.800855   0.412881    2.876847  
H    -0.41935    0.879826    3.901064  
H    -0.945702   1.959893    2.580304  
N    -1.056601   0.949571    -0.684578 
C    -2.36527    1.490897    -0.839112 
C    -3.108307   1.845467    0.286726  
C    -2.919709   1.643506    -2.1136   
C    -4.391564   2.359599    0.138877  
H    -2.674949   1.726242    1.272451  
C    -4.208502   2.150173    -2.254446 
H    -2.35147    1.33488     -2.986851 
C    -4.947238   2.509648    -1.130179 
H    -4.959986   2.643053    1.018684  
H    -4.63606    2.256911    -3.245933 
H    -5.952249   2.902045    -1.24191  
