71                                     
                                       
C    -3.02533    -1.596406   -1.404363 
C    -1.751305   -2.138076   -1.459637 
C    -0.656828   -1.410281   -0.973827 
C    -0.808513   -0.105797   -0.446791 
C    -2.093847   0.404427    -0.374781 
C    -3.213694   -0.313773   -0.855451 
H    -0.749302   2.806473    1.935656  
C    1.915865    2.431166    0.762554  
C    0.692751    -1.919601   -0.921186 
Co   0.884884    0.647322    0.137354  
C    2.670503    1.825367    -0.257678 
C    1.815894    1.702056    -1.416084 
C    0.577742    2.337249    -1.124104 
C    0.597161    2.70854     0.253132  
C    2.346034    2.730624    2.164263  
C    4.130615    1.490294    -0.216363 
C    2.208716    1.133999    -2.746375 
C    -0.510088   2.580284    -2.122871 
C    -0.484635   3.384067    1.042851  
H    -0.155448   4.373744    1.375706  
H    1.570678    2.439314    2.880015  
H    3.274457    2.215901    2.423993  
H    2.51809     3.805865    2.28346   
H    4.465526    1.226177    0.789308  
H    4.384607    0.660272    -0.879705 
H    4.703638    2.365985    -0.541077 
H    3.033609    0.424078    -2.64553  
H    1.369151    0.614729    -3.219375 
H    -0.222235   3.4238      -2.759992 
O    0.370713    0.24947     1.997391  
H    -0.595196   0.067268    2.126716  
C    1.096577    -0.521717   2.954619  
H    2.53365     1.929373    -3.425722 
H    -1.976912   -1.827541   1.074505  
H    -2.273758   1.39077     0.051025  
O    -2.06637    -0.30959    2.831321  
H    -1.459542   2.83002     -1.64674  
H    -0.674966   1.7118      -2.765488 
C    -2.814346   -1.262121   2.677752  
O    -2.683532   -2.128819   1.679711  
C    -3.975557   -1.5742     3.569665  
H    -4.902739   -1.432284   3.006828  
H    -3.935021   -2.621112   3.878216  
H    -3.962157   -0.915744   4.435793  
H    -3.868864   -2.189884   -1.726928 
H    0.951288    -2.907127   -1.311082 
H    -1.61424    -3.142718   -1.851527 
N    -4.457579   0.27628     -0.689816 
H    -4.496626   1.052741    -0.036951 
C    -5.694247   0.127596    -1.332381 
O    -6.61929    0.794418    -0.931174 
C    -5.813431   -0.813455   -2.505296 
H    -4.934764   -0.784312   -3.153399 
H    -5.963485   -1.840275   -2.157915 
H    -6.699449   -0.512426   -3.063457 
H    -1.388718   3.525716    0.446343  
H    2.056514    -0.029508   3.122588  
H    0.534247    -0.538964   3.890523  
H    1.257       -1.543312   2.595747  
N    1.598102    -1.175274   -0.372964 
C    2.952112    -1.616855   -0.399926 
C    3.735135    -1.528319   0.75124   
C    3.509397    -2.109763   -1.583846 
C    5.059804    -1.949079   0.723966  
H    3.304871    -1.131012   1.663491  
C    4.839592    -2.519333   -1.60704  
H    2.908484    -2.140644   -2.488733 
C    5.616776    -2.442832   -0.454189 
H    5.660595    -1.887228   1.625474  
H    5.268707    -2.891932   -2.531261 
H    6.653503    -2.76094    -0.474718 
