71                                     
                                       
C    -3.525327   -0.47588    -1.641311 
C    -2.366131   -1.236979   -1.785282 
C    -1.198787   -0.79981    -1.131841 
C    -1.164566   0.378949    -0.346568 
C    -2.347636   1.073924    -0.16576  
C    -3.525538   0.66957     -0.830515 
H    -0.817806   2.998734    2.255247  
C    1.828357    2.383037    1.124003  
C    0.059223    -1.506103   -1.167808 
Co   0.620524    0.785629    0.300766  
C    2.541397    1.769078    0.075469  
C    1.729678    1.875379    -1.114842 
C    0.561251    2.615359    -0.795003 
C    0.574203    2.859245    0.612685  
C    2.257483    2.554277    2.547772  
C    3.93785     1.226431    0.140979  
C    2.09515     1.403602    -2.489893 
C    -0.456059   3.071274    -1.794361 
C    -0.436143   3.609147    1.429437  
H    0.014625    4.507963    1.862991  
H    1.451264    2.29514     3.241528  
H    3.137586    1.953342    2.788508  
H    2.51666     3.6037      2.727063  
H    4.158004    0.776071    1.112647  
H    4.118573    0.464532    -0.620932 
H    4.653411    2.040114    -0.020582 
H    2.90636     0.673021    -2.458644 
H    1.238534    0.940746    -2.992127 
H    -0.052591   3.925582    -2.349167 
O    0.084108    0.150631    2.086253  
H    -0.743378   -0.384892   2.042408  
C    0.933541    -0.50583    3.03487   
H    -1.28491    3.930795    0.822171  
H    -3.104486   -1.103554   0.757231  
H    -4.430025   -0.795349   -2.144917 
O    -1.640572   -1.813258   2.392235  
O    -3.496134   -1.909479   1.150297  
H    -1.386728   3.384787    -1.318947 
H    -0.697992   2.28432     -2.514053 
C    -2.69151    -2.35965    2.104131  
H    -2.412139   1.968829    0.447645  
C    -3.217326   -3.589988   2.778795  
H    -4.152593   -3.345115   3.289509  
H    -3.441858   -4.354397   2.031473  
H    -2.486282   -3.958059   3.495735  
H    2.425399    2.245494    -3.10777  
H    0.186583    -2.438427   -1.722088 
C    2.328084    -1.643965   -0.617115 
C    3.089097    -1.885481   0.526794  
C    2.832841    -1.996721   -1.87269  
C    4.338169    -2.486066   0.417383  
H    2.696136    -1.61028    1.498125  
C    4.087842    -2.589753   -1.976469 
H    2.254175    -1.774997   -2.765247 
C    4.843332    -2.836465   -0.833137 
H    4.919889    -2.679847   1.312698  
H    4.476709    -2.851611   -2.954988 
H    5.822204    -3.296286   -0.915995 
N    1.056235    -1.013649   -0.504023 
H    1.928417    -0.066872   2.953548  
H    0.541843    -0.339403   4.040692  
H    0.971421    -1.578255   2.830503  
C    -2.393684   -2.504121   -2.602134 
H    -1.621095   -2.501688   -3.377052 
H    -2.229082   -3.382079   -1.968292 
H    -3.359533   -2.62783    -3.095225 
O    -4.600325   1.444718    -0.621605 
C    -5.82804    1.087409    -1.239674 
H    -6.161607   0.100696    -0.901344 
H    -6.546728   1.843674    -0.929353 
H    -5.733867   1.094838    -2.33045  
