72                                     
                                       
C    -3.50678    -0.401797   -1.160005 
C    -2.379314   -1.18355    -1.378751 
C    -1.132829   -0.762487   -0.888022 
C    -0.964084   0.433375    -0.16926  
C    -2.112135   1.183265    0.072265  
C    -3.367817   0.811355    -0.432947 
H    -0.283347   3.043953    2.337218  
C    2.23359     2.308293    0.998632  
C    0.079048    -1.531572   -1.049504 
Co   0.893817    0.76283     0.294136  
C    2.829594    1.655997    -0.099254 
C    1.928678    1.792847    -1.220108 
C    0.823099    2.583201    -0.811678 
C    0.963564    2.835456    0.588531  
C    2.783829    2.465048    2.381849  
C    4.202338    1.053924    -0.144393 
C    2.157787    1.295637    -2.615517 
C    -0.253798   3.076444    -1.727275 
C    0.057035    3.633104    1.478683  
H    0.580557    4.512905    1.867147  
H    2.02937     2.230985    3.139915  
H    3.661097    1.836115    2.550488  
H    3.090212    3.50547     2.537227  
H    4.480317    0.592038    0.806939  
H    4.2887      0.287218    -0.917811 
H    4.93711     1.836477    -0.363288 
H    2.929346    0.523167    -2.642928 
H    1.240805    0.875703    -3.043034 
H    0.136553    3.910631    -2.320742 
O    0.500883    0.142485    2.121633  
H    -0.338736   -0.376901   2.134827  
C    1.414978    -0.558922   2.973319  
H    -0.82312    3.989948    0.939655  
H    -2.958929   -0.754726   1.347198  
O    -3.331691   -1.572388   1.735631  
O    -1.232597   -1.807294   2.470004  
H    -1.127971   3.43106     -1.179006 
C    -2.377093   -2.220704   2.387828  
H    -0.586649   2.296395    -2.417355 
C    -2.860123   -3.495918   3.009259  
H    -3.624383   -3.262529   3.755447  
H    -3.327254   -4.124146   2.247377  
H    -2.02729    -4.016992   3.476985  
H    2.480584    2.116021    -3.265458 
H    0.090673    -2.482369   -1.58835  
C    2.389362    -1.756598   -0.772578 
C    3.266654    -2.01981    0.279578  
C    2.727171    -2.147441   -2.072042 
C    4.464956    -2.681526   0.036354  
H    3.003884    -1.712217   1.284606  
C    3.932605    -2.801093   -2.31043  
H    2.058823    -1.908445   -2.894785 
C    4.803617    -3.070991   -1.25805  
H    5.137689    -2.892055   0.861371  
H    4.192337    -3.092608   -3.322783 
H    5.743646    -3.578545   -1.445775 
N    1.167219    -1.067775   -0.525951 
H    2.411678    -0.149312   2.80522   
H    1.126828    -0.400455   4.014848  
H    1.39776     -1.627482   2.747     
O    -4.395428   1.622266    -0.123303 
C    -5.44957    1.854825    -1.062931 
H    -6.232058   1.103282    -0.964736 
H    -5.840338   2.841913    -0.816025 
H    -5.063962   1.854175    -2.08583  
H    -2.461167   -2.127704   -1.907178 
H    -2.088646   2.113176    0.634915  
O    -4.76065    -0.732731   -1.545042 
C    -4.9453     -1.987266   -2.173806 
H    -6.012839   -2.068964   -2.371527 
H    -4.393114   -2.041494   -3.118879 
H    -4.630248   -2.802956   -1.512797 
