72                                     
                                       
C    -3.027781   -0.968994   -2.336145 
C    -1.758433   -1.536713   -2.362174 
C    -0.760275   -1.026941   -1.52901  
C    -0.980481   0.062899    -0.649236 
C    -2.268133   0.567116    -0.586172 
C    -3.2918     0.082592    -1.44928  
H    -0.934651   2.4873      2.466804  
C    1.744013    2.16509     1.305747  
C    0.569152    -1.584161   -1.459046 
Co   0.666886    0.613469    0.256861  
C    2.510098    1.763056    0.19763   
C    1.693519    1.942432    -0.980243 
C    0.475666    2.567411    -0.585034 
C    0.463762    2.628301    0.837434  
C    2.148562    2.16315     2.746851  
C    3.954076    1.362736    0.21415   
C    2.102756    1.657173    -2.393991 
C    -0.560988   3.085688    -1.531681 
C    -0.579372   3.22161     1.735499  
H    -0.156229   4.066889    2.288806  
H    1.326154    1.826871    3.386168  
H    3.01951     1.528278    2.928908  
H    2.410169    3.179912    3.060584  
H    4.230799    0.854613    1.140685  
H    4.216157    0.703935    -0.616546 
H    4.568315    2.266536    0.131375  
H    2.943397    0.959486    -2.428173 
H    1.275876    1.222493    -2.965739 
H    -0.241835   4.068784    -1.89602  
O    0.000215    -0.20693    1.925338  
H    -0.863273   -0.662129   1.793288  
C    0.74408     -1.019065   2.838469  
H    -1.439033   3.573505    1.165619  
H    -2.599922   -1.897018   -0.027835 
O    -3.199212   -2.527749   0.418002  
O    -2.051234   -1.85341    2.214598  
H    -0.674135   2.430073    -2.399346 
C    -2.928717   -2.538997   1.717721  
H    -1.533771   3.190219    -1.050884 
C    -3.811501   -3.472126   2.48859   
H    -4.854356   -3.168181   2.366572  
H    -3.71499    -4.482857   2.084571  
H    -3.534864   -3.455579   3.540743  
H    2.410564    2.57709     -2.902391 
H    0.861387    -2.437398   -2.076019 
C    2.751015    -1.541746   -0.633124 
C    3.410815    -1.778256   0.572717  
C    3.423293    -1.744142   -1.842867 
C    4.725554    -2.230414   0.568933  
H    2.892074    -1.610465   1.509133  
C    4.742599    -2.187554   -1.839665 
H    2.922299    -1.521368   -2.780949 
C    5.396748    -2.433103   -0.635222 
H    5.22896     -2.421699   1.511029  
H    5.260651    -2.332167   -2.781981 
H    6.425846    -2.775734   -0.634387 
N    1.410217    -1.060447   -0.627955 
H    1.685985    -0.508833   3.042618  
H    0.174504    -1.122892   3.763765  
H    0.933354    -2.007931   2.411195  
O    -4.480302   0.692264    -1.329852 
C    -5.543635   0.264202    -2.169092 
H    -5.79361    -0.78459    -1.976979 
H    -6.392353   0.897303    -1.917041 
H    -5.284667   0.398513    -3.224182 
H    -1.554804   -2.37477    -3.023178 
H    -3.804916   -1.35234    -2.985148 
O    -2.57568    1.606968    0.249533  
C    -3.367038   1.249368    1.378414  
H    -3.615751   2.180979    1.888159  
H    -4.28872    0.747569    1.068919  
H    -2.797194   0.602249    2.056295  
