59                                     
                                       
C    2.909534    -1.971301   -1.936932 
C    2.588573    -0.619244   -2.006505 
C    1.459604    -0.1716     -1.320516 
C    0.615953    -1.006049   -0.561015 
C    0.997863    -2.347231   -0.473762 
C    2.122238    -2.825586   -1.162723 
H    -1.286992   -2.78074    2.069836  
C    -2.778495   -0.405199   1.232155  
C    1.028415    1.218094    -1.284151 
Co   -0.925553   -0.050516   0.188977  
C    -2.960297   0.605146    0.260661  
C    -2.640482   0.028706    -1.023626 
C    -2.279652   -1.326772   -0.82869  
C    -2.298763   -1.585296   0.582136  
C    -2.979861   -0.304686   2.712547  
C    -3.481715   1.99238     0.495245  
C    -2.724062   0.708384    -2.358568 
C    -1.97475    -2.295979   -1.928227 
C    -2.041523   -2.886422   1.283014  
H    -2.960337   -3.251418   1.75412   
H    -2.064266   -0.561559   3.256062  
H    -3.301312   0.693539    3.017354  
H    -3.75654    -1.010599   3.025233  
H    -3.266944   2.342621    1.508286  
H    -3.050281   2.713379    -0.203589 
H    -4.568295   2.018647    0.361625  
H    -2.974944   1.766438    -2.253198 
H    -1.781812   0.632033    -2.912018 
H    -2.9128     -2.663901   -2.358352 
O    0.03762     0.215204    1.881734  
H    1.00867     0.091342    1.736921  
C    -0.097893   1.485469    2.532869  
H    -3.505017   0.247391    -2.97179  
H    2.963296    -1.468522   0.668031  
H    0.417002    -3.048208   0.12072   
O    2.626938    0.613424    1.651155  
O    3.835112    -1.144323   0.97395   
H    -1.407011   -3.156136   -1.569567 
H    -1.397014   -1.82603    -2.728872 
C    3.706363    0.057351    1.513925  
N    -0.044002   1.532377    -0.634419 
C    5.017781    0.650321    1.929382  
H    5.509291    -0.020415   2.638637  
H    5.669731    0.738174    1.056619  
H    4.855488    1.626333    2.382028  
H    3.775857    -2.355937   -2.463616 
H    2.386479    -3.876619   -1.090008 
C    -0.293017   2.960781    -0.847915 
H    3.196416    0.076601    -2.577337 
C    1.024405    3.432556    -1.498711 
O    1.679312    2.19851     -1.890085 
H    -1.152365   3.09201     -1.514458 
H    0.890675    4.03839     -2.3934   
H    -0.50602    3.474658    0.092756  
H    1.686393    3.943309    -0.796154 
H    -1.70632    -3.658072   0.586855  
H    -1.163384   1.702633    2.617112  
H    0.344971    1.42743     3.528814  
H    0.402165    2.26506     1.952313  
