61                                     
                                       
C    2.883896    2.468364    0.538103  
C    2.624368    1.310787    1.281504  
C    1.457876    0.606784    0.948538  
C    0.556294    1.019603    -0.046027 
C    0.893867    2.152275    -0.784932 
C    2.050304    2.882295    -0.49442  
H    -1.738531   1.482919    -3.046942 
C    -3.043586   -0.126562   -0.99357  
N    1.068631    -0.624933   1.573435  
Co   -1.050332   -0.05615    -0.18028  
C    -3.067096   -0.552778   0.35028   
C    -2.5516     0.528469    1.157071  
C    -2.264867   1.624075    0.300639  
C    -2.493631   1.196394    -1.045694 
C    -3.47904    -0.892702   -2.203619 
C    -3.610725   -1.85346    0.864755  
C    -2.407137   0.52324     2.649162  
C    -1.819767   2.980341    0.753104  
C    -2.359917   1.99808     -2.306642 
H    -3.343771   2.162767    -2.758622 
H    -2.686831   -0.928027   -2.958946 
H    -3.777138   -1.914273   -1.956175 
H    -4.343809   -0.397851   -2.658688 
H    -3.33662    -2.700359   0.227279  
H    -3.259586   -2.059645   1.878738  
H    -4.704381   -1.815502   0.904047  
H    -2.145116   -0.469783   3.025194  
H    -1.625601   1.216775    2.971203  
H    -2.682051   3.531332    1.143498  
O    -0.309919   -1.026081   -1.725309 
H    0.665442    -0.872521   -1.765353 
C    -0.484889   -2.449749   -1.786289 
H    -3.343336   0.828123    3.128281  
H    2.875765    0.865885    -1.469767 
H    0.24288     2.487201    -1.588885 
O    2.297055    -1.381108   -1.641338 
O    3.696461    0.36557     -1.656902 
H    -1.390649   3.560587    -0.06535  
H    -1.068135   2.919992    1.544406  
C    3.424816    -0.927831   -1.75029  
N    -0.074278   -1.168491   1.102451  
C    4.645655    -1.759372   -2.003851 
H    5.080226    -1.4722     -2.96514  
H    5.395089    -1.559893   -1.234359 
H    4.378294    -2.814042   -2.014296 
H    3.777737    3.039556    0.769014  
C    -0.254096   -2.320402   1.742407  
C    0.789834    -2.53763    2.646935  
H    -1.115806   -2.934809   1.521204  
C    1.61281     -1.436773   2.509274  
H    2.532171    -1.196295   3.011607  
H    0.931539    -3.37706    3.308974  
H    -1.922146   2.980205    -2.116317 
H    -1.545453   -2.658302   -1.639187 
H    -0.176438   -2.804426   -2.771311 
H    0.108727    -2.941908   -1.012358 
C    3.603901    0.90658     2.354404  
H    3.125753    0.819476    3.335206  
H    4.092176    -0.045856   2.120403  
H    4.38799     1.660424    2.43963   
H    2.297708    3.770309    -1.067282 
