69                                     
                                       
C    3.605528    -0.552448   -1.256867 
C    2.706866    0.461211    -1.56449  
C    1.401623    0.391036    -1.082092 
C    0.934468    -0.672001   -0.279892 
C    1.862804    -1.641808   0.069268  
C    3.186567    -1.59845    -0.422466 
H    -0.135082   -3.098362   2.168429  
C    -2.514255   -1.764527   1.041727  
C    0.435556    1.463464    -1.178399 
Co   -0.963012   -0.494576   0.187269  
C    -3.066494   -0.985899   -0.002684 
C    -2.345782   -1.315801   -1.205741 
C    -1.359736   -2.280494   -0.887559 
C    -1.425476   -2.525833   0.52609   
C    -3.014244   -1.86507    2.449455  
C    -4.303065   -0.144102   0.111111  
C    -2.613334   -0.823525   -2.597887 
C    -0.474721   -2.954515   -1.890552 
C    -0.65851    -3.545429   1.316434  
H    -1.341636   -4.305283   1.710437  
H    -2.201327   -2.059127   3.154026  
H    -3.553398   -0.971278   2.770635  
H    -3.710764   -2.708967   2.516744  
H    -4.369153   0.350187    1.085013  
H    -4.352668   0.628319    -0.65809  
H    -5.195292   -0.77072    0.003254  
H    -3.531721   -0.235264   -2.644351 
H    -1.793022   -0.206178   -2.978438 
H    -1.04284    -3.732442   -2.413034 
O    -0.403583   0.300742    1.909367  
H    0.249463    1.017156    1.691723  
C    -1.257208   0.788341    2.951971  
H    -2.732148   -1.674702   -3.275518 
H    2.508224    0.350207    1.386738  
H    1.615801    -2.481587   0.711578  
O    1.237005    2.32149     1.486081  
O    3.120129    1.104739    1.521679  
H    0.391722    -3.422344   -1.420279 
H    -0.104977   -2.246164   -2.637426 
C    2.460712    2.249834    1.50962   
N    -0.760147   1.311903    -0.708224 
C    3.359911    3.445712    1.492971  
H    4.22211     3.284101    2.141433  
H    3.727448    3.578798    0.470071  
H    2.803918    4.331692    1.794624  
H    4.618238    -0.511051   -1.637341 
C    -1.462699   2.612919    -0.847559 
H    3.021341    1.308833    -2.167168 
C    -0.282093   3.555224    -1.184539 
O    0.771457    2.669144    -1.623158 
H    -0.497137   4.255486    -1.992266 
H    0.089148    4.087542    -0.303379 
H    0.077789    -4.060931   0.696959  
H    -2.247027   1.034234    2.557927  
H    -1.344134   0.021106    3.720804  
H    -0.808076   1.685131    3.385476  
C    -2.142347   3.006151    0.455654  
H    -2.597684   3.997335    0.364854  
H    -2.936705   2.293216    0.700216  
H    -1.414362   3.031889    1.272057  
C    -2.453017   2.566187    -2.009125 
H    -3.227717   1.819681    -1.829607 
H    -2.937708   3.540295    -2.127876 
H    -1.941723   2.316311    -2.944325 
O    3.974426    -2.612524   -0.029202 
C    5.321971    -2.633296   -0.474397 
H    5.862232    -1.746523   -0.126346 
H    5.765278    -3.526613   -0.038082 
H    5.372314    -2.69377    -1.566618 
