70                                     
                                       
C    -3.559576   -0.416962   -2.120422 
C    -2.35786    -1.110337   -2.263576 
C    -1.248569   -0.722661   -1.504376 
C    -1.2656     0.366108    -0.603744 
C    -2.503147   0.984316    -0.383567 
C    -3.609291   0.600213    -1.161667 
H    0.197551    2.608376    2.809792  
C    2.221252    1.857624    0.788008  
C    -0.030311   -1.508453   -1.451754 
Co   0.509874    0.687064    0.151772  
C    2.438287    1.45229     -0.542629 
C    1.327949    1.896067    -1.331221 
C    0.512672    2.738833    -0.500542 
C    1.019506    2.660376    0.816657  
C    3.16415     1.649464    1.936603  
C    3.652396    0.753398    -1.067419 
C    1.146185    1.68547     -2.803995 
C    -0.600601   3.597352    -1.015443 
C    0.496716    3.337361    2.048366  
H    1.269357    3.979722    2.482421  
H    2.679007    1.849816    2.895484  
H    3.568821    0.632119    1.955958  
H    4.013695    2.336558    1.854333  
H    4.117746    0.102698    -0.32312  
H    3.431848    0.155325    -1.954123 
H    4.386331    1.514654    -1.357092 
H    1.500257    0.695539    -3.109427 
H    0.091815    1.762356    -3.083213 
H    -0.175934   4.356186    -1.681501 
O    -0.199251   0.098573    1.898607  
H    -1.125959   -0.239767   1.858172  
C    0.398049    -0.390038   3.099889  
H    -0.369084   3.964777    1.827759  
H    -2.90556    -1.46975    0.135131  
O    -3.5044     -2.054052   0.64153   
O    -2.548829   -1.012242   2.377361  
H    -1.334672   3.023963    -1.588206 
C    -3.363799   -1.806747   1.937736  
H    -1.121997   4.116381    -0.210137 
C    -4.310388   -2.599187   2.786712  
H    -5.338029   -2.328068   2.530943  
H    -4.189491   -3.663882   2.572831  
H    -4.119297   -2.397064   3.838594  
H    1.705882    2.430051    -3.38036  
H    0.073936    -2.438862   -2.014544 
C    2.086372    -1.875254   -0.487276 
C    2.672611    -1.932464   0.777242  
C    2.697797    -2.511942   -1.569854 
C    3.853178    -2.642639   0.965696  
H    2.193377    -1.422436   1.606125  
C    3.881846    -3.216      -1.376142 
H    2.274238    -2.421578   -2.566328 
C    4.461519    -3.285144   -0.111149 
H    4.299626    -2.692622   1.953573  
H    4.360235    -3.699635   -2.221317 
H    5.387727    -3.830861   0.032987  
N    0.892393    -1.119284   -0.63818  
H    1.38514     0.064032    3.191733  
H    -0.219977   -0.096749   3.951203  
H    0.490727    -1.4796     3.074041  
H    -2.292905   -1.958052   -2.942469 
H    -4.560548   1.10356     -0.991952 
C    -2.720526   1.991687    0.719922  
H    -1.776469   2.281293    1.184405  
H    -3.227021   2.891233    0.356974  
H    -3.348689   1.552271    1.502772  
C    -4.790178   -0.806856   -2.896258 
H    -4.531055   -1.374158   -3.793002 
H    -5.448009   -1.431604   -2.282678 
H    -5.359953   0.074579    -3.201138 
