55                                     
                                       
C    -2.946788   -2.028375   1.722695  
C    -2.749258   -0.657535   1.669774  
C    -1.586191   -0.156977   1.069614  
C    -0.599753   -1.002884   0.531948  
C    -0.843078   -2.374395   0.568822  
C    -1.998424   -2.882778   1.157055  
H    1.641179    -2.831862   -1.66073  
H    -3.503065   0.013564    2.074332  
C    -1.367086   1.262154    0.808276  
Co   0.888488    -0.073233   -0.247264 
C    2.929461    -0.288931   -0.959999 
C    2.881092    0.812224    -0.082142 
C    2.410682    0.33386     1.19181   
C    2.242194    -1.072884   1.100245  
C    2.493565    -1.455691   -0.25203  
C    3.301294    -0.289102   -2.409985 
C    3.33541     2.212388    -0.371738 
C    2.206624    1.169848    2.420503  
C    1.880748    -1.974495   2.241166  
C    2.399497    -2.819561   -0.869473 
H    3.357756    -3.113972   -1.311123 
H    2.566596    -0.85657    -2.990177 
H    3.356216    0.724922    -2.816071 
H    4.280134    -0.759054   -2.556939 
H    3.145463    2.503841    -1.409724 
H    2.844444    2.940536    0.280186  
H    4.413979    2.303449    -0.201045 
H    1.814525    2.160716    2.168465  
H    1.49181     0.69804     3.100714  
O    0.168925    -0.353672   -1.969539 
H    -1.309283   -0.007396   -1.990149 
H    0.584582    0.236181    -2.615955 
H    2.762422    -2.145706   2.868952  
H    0.878983    2.935866    -0.893771 
H    -2.497072   4.443753    0.909596  
H    -3.128031   2.157984    1.697596  
H    2.133255    -3.577447   -0.1287   
C    -1.87001    3.583649    0.687926  
H    3.145349    1.313308    2.96723   
C    -0.012194   2.775948    -0.293906 
C    -2.218419   2.321346    1.132714  
H    -3.845938   -2.432604   2.176156  
H    -0.140143   -3.062908   0.1068    
N    -0.235472   1.525734    0.112795  
O    -2.947106   -1.723255   -1.713038 
H    1.519698    -2.942973   1.89062   
H    1.093666    -1.543588   2.865744  
C    -3.156251   -0.53264    -1.650523 
O    -2.250409   0.410848    -1.878939 
C    -4.506803   0.060514    -1.304647 
H    -4.906932   0.592214    -2.1729   
H    -5.192042   -0.732381   -1.00654  
H    -4.394552   0.790429    -0.497313 
H    -2.174559   -3.954609   1.158955  
N    -0.772636   3.82828     -0.040593 
