55                                     
                                       
C    2.726356    -2.707219   -1.179683 
C    2.659964    -1.349275   -1.454181 
C    1.527594    -0.647485   -1.037913 
C    0.453331    -1.233038   -0.346448 
C    0.568724    -2.592345   -0.06157  
C    1.686092    -3.317728   -0.475973 
H    -1.843297   -2.201725   2.300944  
H    3.470721    -0.832839   -1.961005 
C    1.401487    0.796515    -1.090949 
Co   -0.897232   0.052192    0.190755  
C    -2.862296   0.264725    1.070307  
C    -2.761914   1.116067    -0.049659 
C    -2.492673   0.292777    -1.198982 
C    -2.46444    -1.060666   -0.776443 
C    -2.632445   -1.080824   0.643951  
C    -3.095628   0.666681    2.493543  
C    -2.91793    2.608713    -0.051233 
C    -2.297097   0.783963    -2.602204 
C    -2.294755   -2.247899   -1.675192 
C    -2.647766   -2.26919    1.560091  
H    -3.600078   -2.335457   2.097666  
H    -2.434174   0.112543    3.16704   
H    -2.928263   1.737516    2.644166  
H    -4.128269   0.45009     2.789304  
H    -2.395938   3.076898    0.790173  
H    -2.521095   3.0437      -0.972312 
H    -3.973641   2.893626    0.016405  
H    -1.730959   1.7204      -2.618663 
H    -1.737631   0.056409    -3.19625  
O    -0.031638   0.229217    1.86562   
H    1.375454    0.672722    1.731845  
H    -0.471691   0.896299    2.412329  
H    -3.246339   -2.485515   -2.163804 
H    -0.135172   3.353706    -1.19037  
H    2.169682    3.602263    -1.865201 
H    -2.519349   -3.201996   1.005671  
C    2.032079    2.92975     -1.017706 
H    -3.256618   0.959667    -3.101045 
C    0.561072    2.79075     -0.559336 
H    3.59245     -3.285747   -1.48371  
H    -0.201209   -3.098448   0.516241  
H    1.757875    -4.374255   -0.232032 
O    3.124009    -0.942799   1.879749  
H    -1.968874   -3.128994   -1.119515 
H    -1.547805   -2.063311   -2.451613 
C    3.271201    0.208768    1.541387  
O    2.299359    1.118606    1.512169  
C    4.58956     0.780247    1.063585  
H    5.384038    0.049084    1.208282  
H    4.500388    1.025627    7e-06     
H    4.819661    1.70371     1.601574  
N    0.320866    1.356752    -0.664791 
H    2.69721     3.20202     -0.196962 
H    0.429465    3.111795    0.47891   
O    2.403216    1.599231    -1.442198 
