57                                     
                                       
C    -3.109563   -1.80741    -1.224797 
C    -2.03655    -2.540488   -0.725014 
C    -0.872225   -1.854301   -0.410488 
C    -0.706109   -0.477466   -0.580776 
C    -1.800717   0.209685    -1.091337 
C    -3.008466   -0.426991   -1.40567  
H    -0.776577   2.916963    0.25354   
C    2.091753    2.019397    0.469922  
N    0.256193    -2.506839   0.172879  
Co   0.940124    0.203591    0.159637  
C    2.958562    0.977516    0.082152  
C    2.532511    0.510552    -1.213082 
C    1.421822    1.291894    -1.617952 
C    1.097444    2.185804    -0.545243 
C    2.091153    2.756239    1.770393  
C    4.146269    0.480175    0.85458   
C    3.185332    -0.577807   -2.012071 
C    0.731308    1.196415    -2.944633 
C    -0.012681   3.1955      -0.482316 
H    0.38402     4.179462    -0.209402 
H    1.20458     2.469372    2.346349  
H    2.983545    2.525993    2.358424  
H    2.065624    3.837367    1.599106  
H    3.91177     0.328941    1.913611  
H    4.515549    -0.465434   0.446842  
H    4.973059    1.197213    0.801908  
H    3.502905    -1.409171   -1.37436  
H    2.496284    -0.983286   -2.757814 
H    1.325955    1.706299    -3.711019 
O    0.098521    0.45493     1.832973  
H    -1.40936    0.376991    1.92639   
H    0.382717    -0.228859   2.456243  
H    -0.505492   3.302513    -1.452565 
H    4.06972     -0.204162   -2.540197 
H    -4.040527   -2.315777   -1.461179 
H    -1.759636   1.291633    -1.190285 
N    1.278596    -1.711178   0.524947  
O    -2.864755   2.057207    1.001856  
H    -0.255092   1.662488    -2.916304 
H    0.590421    0.157769    -3.255188 
C    -3.215378   1.020467    1.537331  
O    -2.406172   0.131499    2.071227  
C    -4.664723   0.595398    1.629734  
H    -4.907702   0.300371    2.653245  
H    -5.314747   1.406034    1.301186  
H    -4.809319   -0.281391   0.989463  
C    2.207193    -2.496699   1.067112  
H    -2.130372   -3.610963   -0.566254 
C    1.774286    -3.829092   1.062705  
H    3.129213    -2.068757   1.433835  
C    0.518208    -3.790089   0.482086  
H    -0.194335   -4.572145   0.270745  
H    2.298467    -4.697245   1.429182  
C    -4.17366    0.396122    -1.892294 
H    -4.275071   1.295856    -1.275637 
H    -4.027265   0.719497    -2.929023 
H    -5.110579   -0.166406   -1.846332 
