57                                     
                                       
C    -3.00849    -1.71773    1.508932  
C    -2.793489   -0.339784   1.416717  
C    -1.574311   0.059017    0.851708  
C    -0.575146   -0.834191   0.446822  
C    -0.861014   -2.191626   0.53073   
C    -2.072647   -2.636447   1.052902  
H    1.815903    -2.804666   -1.549462 
C    3.096542    -0.287043   -0.785819 
N    -1.246347   1.42529     0.561527  
Co   1.02196     -0.013433   -0.237913 
C    2.997519    0.829787    0.067407  
C    2.43        0.380535    1.312064  
C    2.244623    -1.0246     1.230013  
C    2.587767    -1.434686   -0.092546 
C    3.572755    -0.318917   -2.204366 
C    3.438245    2.232966    -0.226741 
C    2.141445    1.246575    2.502184  
C    1.770829    -1.899617   2.350328  
C    2.505086    -2.804774   -0.697226 
H    3.487469    -3.135189   -1.052061 
H    2.860348    -0.86518    -2.830878 
H    3.696395    0.687661    -2.613936 
H    4.541075    -0.826892   -2.273863 
H    3.298765    2.495291    -1.280509 
H    2.885977    2.956608    0.379723  
H    4.501738    2.360383    0.004273  
H    1.700649    2.202382    2.199389  
H    1.432864    0.758821    3.177104  
H    2.589392    -2.067443   3.059186  
O    0.444232    -0.34114    -2.007548 
H    -1.018411   0.009571    -2.139989 
H    0.887895    0.263129    -2.621607 
H    2.152385    -3.542795   0.027369  
H    3.052995    1.462067    3.070789  
H    -3.944835   -2.065009   1.937385  
H    -0.140231   -2.916136   0.160468  
N    -0.046      1.610892    -0.016837 
O    -2.700838   -1.684663   -1.981018 
H    1.43278     -2.871441   1.986309  
H    0.934302    -1.449245   2.891005  
C    -2.89273    -0.489693   -1.937134 
O    -1.962721   0.439204    -2.106078 
C    -4.266668   0.110905    -1.70617  
H    -4.783413   0.20496     -2.66647  
H    -4.846857   -0.555515   -1.065468 
H    -4.188653   1.10703     -1.264277 
C    0.032255    2.891156    -0.361432 
C    -1.142657   3.55879     -0.001325 
H    0.918895    3.264807    -0.852889 
C    -1.937881   2.585462    0.573237  
H    -2.933541   2.650412    0.972884  
H    -1.388065   4.598601    -0.146645 
H    -2.292006   -3.698579   1.099912  
C    -3.859039   0.597495    1.928753  
H    -3.452566   1.350888    2.61209   
H    -4.378664   1.117532    1.11535   
H    -4.612434   0.028675    2.478571  
