59                                     
                                       
C    0.520884    3.705133    1.35557   
C    1.572708    2.968835    0.813805  
C    1.288493    1.668841    0.333087  
C    -0.005066   1.109009    0.44979   
C    -1.028361   1.902843    0.96446   
C    -0.772372   3.195622    1.407599  
H    -3.379784   -0.24704    1.073135  
C    2.935133    3.620861    0.795994  
C    2.230464    0.791537    -0.395833 
Co   -0.125059   -0.742663   -0.060994 
C    -1.583083   -2.329107   0.255356  
C    -0.282071   -2.897286   0.151035  
C    0.505711    -2.37016    1.220488  
C    -0.291805   -1.451827   1.950908  
C    -1.600433   -1.431768   1.350582  
C    -2.702128   -2.59882    -0.701055 
C    0.102048    -3.921993   -0.875421 
C    1.941204    -2.694489   1.51282   
C    0.125553    -0.691271   3.173814  
C    -2.815711   -0.728166   1.878414  
H    -3.476621   -1.446086   2.377572  
H    -3.575555   -1.983253   -0.475252 
H    -2.388895   -2.368878   -1.725324 
H    -2.996523   -3.653438   -0.656179 
H    -0.117018   -3.567826   -1.889767 
H    1.16413     -4.178089   -0.819434 
H    -0.460504   -4.850574   -0.726241 
H    2.444099    -3.12163    0.640595  
H    2.501765    -1.802618   1.810431  
O    -0.856208   -0.453878   -1.770052 
H    -2.18111    0.024106    -1.496802 
H    -0.576918   0.396353    -2.150891 
H    -0.156586   -1.231403   4.084777  
H    1.795337    -2.187467   -1.737446 
H    4.123874    -1.786632   -2.571093 
H    5.229024    0.385604    -1.944784 
H    3.99644     2.021571    -0.603792 
H    -2.543638   0.034435    2.612158  
C    3.623786    -1.051206   -1.952628 
C    4.22455     0.153397    -1.604547 
H    2.014599    -3.422439   2.328086  
C    2.338852    -1.282046   -1.488486 
C    3.530928    1.077934    -0.836401 
H    0.722011    4.705098    1.730331  
H    -2.042621   1.517627    1.003708  
N    1.684462    -0.405815   -0.725395 
O    -1.904567   2.174266    -2.278036 
H    -0.33997    0.297816    3.202386  
H    1.20885     -0.540806   3.195445  
C    -2.884271   1.798539    -1.659734 
O    -3.064919   0.557484    -1.240772 
C    -4.010552   2.725043    -1.262377 
H    -3.902866   3.68077     -1.773774 
H    -4.976347   2.269884    -1.492509 
H    -3.968827   2.885649    -0.179738 
H    3.708235    2.977366    1.227978  
H    3.247289    3.893964    -0.218446 
H    2.909843    4.541999    1.382933  
H    -1.577603   3.808833    1.803969  
