70                                     
                                       
C    -2.555861   3.29987     -0.403003 
C    -1.211573   3.320933    -0.75535  
C    -0.429323   2.191704    -0.453823 
C    -0.955918   1.048449    0.194742  
C    -2.302877   1.047869    0.506189  
C    -3.099646   2.16501     0.216159  
H    -2.343363   -2.127418   0.87925   
C    0.602646    -2.346843   1.242008  
C    0.954745    2.065059    -0.820216 
Co   0.341556    -0.371      0.354692  
C    1.788714    -1.60724    1.430246  
C    1.447994    -0.421919   2.179635  
C    0.064853    -0.468965   2.478859  
C    -0.479722   -1.628881   1.841726  
C    0.428393    -3.636963   0.504995  
C    3.174185    -2.039548   1.049153  
C    2.397834    0.640371    2.648299  
C    -0.666616   0.515984    3.338664  
C    -1.896034   -2.123298   1.878794  
H    -1.932341   -3.147038   2.266732  
H    -0.342316   -3.547688   -0.27017  
H    1.360735    -3.961948   0.036268  
H    0.114492    -4.423241   1.201728  
H    3.185248    -2.573087   0.094237  
H    3.85649     -1.190789   0.95624   
H    3.580129    -2.713537   1.812456  
H    3.325536    0.629609    2.070747  
H    1.956652    1.638493    2.550816  
H    -0.52392    0.263188    4.395824  
O    -0.420207   -1.093692   -1.209138 
H    -1.827837   -1.389865   -1.345883 
C    0.356162    -1.680025   -2.207777 
H    -2.517932   -1.501359   2.528107  
H    2.657827    0.494657    3.703028  
H    -3.17334    4.162755    -0.624732 
H    -2.798568   0.191254    0.953438  
O    -2.131493   -3.707809   -1.754469 
H    -1.737997   0.519462    3.129515  
H    -0.300413   1.534562    3.182191  
C    -3.029322   -2.889292   -1.666967 
O    -2.852291   -1.602757   -1.440168 
C    -4.49151    -3.255641   -1.798343 
H    -4.953147   -2.652865   -2.584424 
H    -4.590088   -4.316095   -2.026497 
H    -5.009249   -3.023409   -0.863337 
H    1.502712    2.87774     -1.304275 
C    2.952703    0.866025    -0.844228 
C    3.47189     -0.199387   -1.582345 
C    3.818276    1.848311    -0.350396 
C    4.837776    -0.270703   -1.832442 
H    2.798802    -0.959863   -1.959062 
C    5.185319    1.766471    -0.598176 
H    3.413829    2.654885    0.255136  
C    5.699921    0.70759     -1.341172 
H    5.230038    -1.09926    -2.413873 
H    5.84821     2.529042    -0.2014   
H    6.766094    0.642132    -1.532213 
N    1.559542    0.944807    -0.579977 
H    1.153488    -2.324848   -1.795879 
H    -0.276297   -2.325994   -2.829846 
H    0.829534    -0.924491   -2.855812 
C    -0.632929   4.526917    -1.455105 
H    0.213402    4.947623    -0.90182  
H    -0.277646   4.272586    -2.459334 
H    -1.3853     5.312181    -1.55856  
O    -4.399095   2.063492    0.578105  
C    -5.264368   3.134309    0.268471  
H    -5.300071   3.316258    -0.81188  
H    -6.25167    2.834326    0.618799  
H    -4.960115   4.054529    0.781431  
