71                                     
                                       
C    3.198355    -2.349307   -0.400398 
C    1.908674    -2.725757   -0.733551 
C    0.84334     -1.85854    -0.435901 
C    1.019556    -0.615767   0.194169  
C    2.327756    -0.257997   0.507463  
C    3.404483    -1.103034   0.241155  
H    1.464247    2.801799    0.840962  
C    -1.435828   2.210318    1.200786  
C    -0.516522   -2.147472   -0.807614 
Co   -0.630985   0.376941    0.336956  
C    -2.369255   1.170256    1.39431   
C    -1.715272   0.135783    2.15924   
C    -0.401119   0.569009    2.45797   
C    -0.198782   1.828778    1.808491  
C    -1.626603   3.491023    0.451553  
C    -3.818036   1.193809    1.004045  
C    -2.332372   -1.144612   2.638857  
C    0.573248    -0.164516   3.328155  
C    1.025745    2.6957      1.838757  
H    0.774947    3.697535    2.203656  
H    -0.86034    3.614103    -0.323402 
H    -2.611761   3.538829    -0.019277 
H    -1.546059   4.339424    1.141415  
H    -3.971564   1.69199     0.042303  
H    -4.234972   0.187012    0.919959  
H    -4.401362   1.736076    1.757267  
H    -3.223587   -1.400512   2.060454  
H    -1.62904    -1.980392   2.553826  
H    0.360852    0.046162    4.382837  
O    -0.113863   1.260941    -1.24213  
H    1.156765    1.938551    -1.380005 
C    -1.028993   1.604605    -2.236183 
H    1.788749    2.283146    2.504213  
H    -2.627242   -1.065571   3.691508  
H    2.573681    0.699472    0.958089  
O    0.808152    4.243432    -1.815106 
H    1.603497    0.131871    3.121764  
H    0.508354    -1.246063   3.179525  
C    1.897559    3.708385    -1.709805 
O    2.082115    2.425781    -1.467014 
C    3.201617    4.46474     -1.835111 
H    3.818899    4.007584    -2.612463 
H    3.004376    5.509285    -2.072511 
H    3.755739    4.391271    -0.895043 
H    -0.792052   -3.092485   -1.285305 
C    -2.77675    -1.580046   -0.844838 
C    -3.57839    -0.715993   -1.59321  
C    -3.323109   -2.765382   -0.340874 
C    -4.905983   -1.044439   -1.844298 
H    -3.152069   0.202755    -1.977518 
C    -4.654958   -3.083487   -0.589465 
H    -2.704883   -3.41496    0.272826  
C    -5.450617   -2.225158   -1.343292 
H    -5.518913   -0.369995   -2.434052 
H    -5.071142   -4.000824   -0.184978 
H    -6.489756   -2.471824   -1.53528  
N    -1.420941   -1.250945   -0.578755 
H    -1.976592   1.991859    -1.819925 
H    -0.61013    2.407525    -2.856005 
H    -1.268058   0.747941    -2.887282 
O    4.641268    -0.651264   0.568543  
C    5.536624    -1.532292   1.235983  
H    6.145348    -2.092807   0.525172  
H    6.17409     -0.898216   1.855238  
H    4.991262    -2.234288   1.875689  
H    1.715445    -3.664462   -1.243038 
O    4.316909    -3.081167   -0.672541 
C    4.135577    -4.292399   -1.368371 
H    5.130484    -4.715331   -1.507105 
H    3.517812    -4.994826   -0.794616 
H    3.671836    -4.121431   -2.347581 
