71                                     
                                       
C    2.301852    -3.496531   -1.049934 
C    0.93048     -3.460853   -1.235165 
C    0.218278    -2.354454   -0.769433 
C    0.817201    -1.287613   -0.067451 
C    2.197754    -1.332632   0.092816  
C    2.944167    -2.420479   -0.424039 
H    2.213277    1.944201    0.888344  
C    -0.986871   2.000384    1.32638   
C    -1.180652   -2.1711     -1.046906 
Co   -0.448251   0.154248    0.296521  
C    -1.961073   1.032215    1.631947  
C    -1.29244    -0.097489   2.221101  
C    0.078899    0.245363    2.384064  
C    0.291302    1.509617    1.768752  
C    -1.188491   3.319657    0.648536  
C    -3.447033   1.196782    1.52136   
C    -1.940162   -1.356843   2.713833  
C    1.078187    -0.584075   3.132061  
C    1.56987     2.293099    1.698893  
H    1.35613     3.351875    1.532021  
H    -0.408401   3.488647    -0.10172  
H    -2.165561   3.371245    0.159285  
H    -1.139829   4.135673    1.379521  
H    -3.726705   1.881229    0.717641  
H    -3.963857   0.249295    1.34747   
H    -3.825749   1.61437     2.461978  
H    -2.835765   -1.593665   2.130395  
H    -1.253021   -2.205469   2.633768  
H    0.67436     -0.840841   4.117672  
O    0.273866    1.033973    -1.210392 
H    1.612241    1.603784    -1.343939 
C    -0.506527   1.528408    -2.252517 
H    2.124446    2.202897    2.640147  
H    -2.243249   -1.268025   3.764047  
O    1.432827    3.970736    -1.275707 
H    2.005926    -0.028485   3.279972  
H    1.320598    -1.516767   2.613489  
C    2.456391    3.347136    -1.493812 
O    2.544327    2.034509    -1.543875 
C    3.791718    4.021398    -1.724466 
H    4.241083    3.650608    -2.648823 
H    3.659862    5.101656    -1.770973 
H    4.469882    3.76455     -0.905371 
H    -1.761278   -2.937586   -1.56831  
C    -3.136457   -0.919945   -0.906596 
C    -3.649515   0.241707    -1.486525 
C    -4.010486   -1.93369    -0.499602 
C    -5.020621   0.375494    -1.672264 
H    -2.969377   1.031378    -1.78381  
C    -5.38302    -1.787841   -0.680094 
H    -3.609293   -2.818757   -0.0133   
C    -5.89265    -0.633989   -1.268684 
H    -5.410188   1.279413    -2.130094 
H    -6.053359   -2.57542    -0.350417 
H    -6.962806   -0.518529   -1.406208 
N    -1.738332   -1.057958   -0.700399 
H    -1.260165   2.260055    -1.912756 
H    0.137434    2.056954    -2.968938 
H    -1.025334   0.723712    -2.798781 
O    4.293865    -2.345014   -0.30061  
C    5.075597    -3.376989   -0.861307 
H    4.903756    -3.461859   -1.940353 
H    6.113346    -3.098393   -0.679179 
H    4.86818     -4.341317   -0.382434 
H    0.426006    -4.270116   -1.756664 
H    2.877014    -4.334541   -1.422773 
O    2.791091    -0.249873   0.673205  
C    3.933255    -0.393928   1.49883   
H    4.853804    -0.403785   0.914291  
H    3.929212    0.478151    2.158605  
H    3.876953    -1.306661   2.103264  
