58                                     
                                       
C    -2.670592   2.807183    1.451213  
C    -1.418562   3.140758    0.957308  
C    -0.522233   2.120868    0.612145  
C    -0.841509   0.756251    0.760673  
C    -2.106468   0.454669    1.267273  
C    -3.013046   1.461771    1.598753  
H    -2.108666   -2.629146   0.521828  
H    -1.151639   4.186388    0.827602  
C    0.788815    2.381969    0.025724  
Co   0.502148    -0.423456   0.024273  
C    0.716317    -2.580886   -0.183242 
C    2.002491    -1.9815     -0.082797 
C    2.064641    -1.320987   1.191046  
C    0.818555    -1.487885   1.843358  
C    -0.02818    -2.267843   0.981435  
C    0.187505    -3.406868   -1.314961 
C    3.120558    -2.15501    -1.073306 
C    3.23705     -0.578691   1.763821  
C    0.469319    -1.007742   3.219551  
C    -1.374844   -2.844392   1.305435  
H    -1.291104   -3.933218   1.405334  
H    -0.725177   -2.967698   -1.731603 
H    0.925539    -3.513314   -2.113742 
H    -0.066737   -4.409815   -0.95396  
H    2.848906    -1.807743   -2.075788 
H    4.019141    -1.615039   -0.761979 
H    3.398136    -3.211291   -1.156854 
H    3.988061    -0.347873   1.00407   
H    2.929793    0.366507    2.222218  
O    -0.33431    -0.18063    -1.661133 
H    -1.697892   -0.832107   -1.585592 
C    0.419711    -0.359961   -2.819576 
H    0.679334    -1.787373   3.96064   
H    3.210823    0.481126    -1.105893 
H    3.112547    4.595291    -1.034832 
H    0.838903    4.548587    -0.003363 
H    -1.752904   -2.460778   2.256188  
C    2.619958    3.652083    -0.811976 
H    3.727018    -1.179142   2.537878  
C    2.693333    1.4019      -0.851063 
C    1.361473    3.629946    -0.238623 
H    -3.381264   3.585875    1.708281  
N    1.489817    1.267262    -0.288483 
O    -4.600517   -0.770413   -0.615577 
H    -0.588484   -0.743051   3.291522  
H    1.048979    -0.12116    3.491155  
C    -3.584884   -0.457495   -1.191058 
O    -2.563632   -1.307932   -1.315011 
C    -3.372144   0.899784    -1.83344  
H    -3.271812   0.779449    -2.917272 
H    -4.223442   1.541929    -1.610187 
H    -2.44522    1.350164    -1.464722 
H    -2.433217   -0.575981   1.359858  
H    1.338318    0.252034    -2.816078 
H    0.723315    -1.406981   -2.98359  
H    -0.16568    -0.047683   -3.695259 
H    -4.003571   1.189079    1.951251  
N    3.302195    2.542813    -1.127923 
