61                                     
                                       
C    -3.169587   1.673273    0.914383  
C    -2.060572   2.431933    0.541413  
C    -0.844481   1.794826    0.37193   
C    -0.651146   0.419617    0.56504   
C    -1.765592   -0.310102   0.943347  
C    -3.019553   0.298725    1.103925  
H    -0.51433    -2.940696   -0.376364 
C    2.30743     -1.959342   -0.253272 
N    0.321505    2.493025    -0.06245  
Co   1.102934    -0.18255    0.009137  
C    3.114694    -0.919776   0.256123  
C    2.559631    -0.517964   1.52444   
C    1.429576    -1.329628   1.788388  
C    1.228445    -2.186434   0.656046  
C    2.446332    -2.657417   -1.568241 
C    4.37658     -0.385459   -0.358067 
C    3.120368    0.5421      2.424911  
C    0.608315    -1.297329   3.041712  
C    0.15516     -3.215179   0.447677  
H    0.602971    -4.188608   0.218548  
H    1.540112    -2.501268   -2.162736 
H    3.306244    -2.286257   -2.132144 
H    2.5795      -3.733908   -1.41519  
H    4.272419    -0.215762   -1.434659 
H    4.673343    0.558395    0.108643  
H    5.204768    -1.088474   -0.214582 
H    3.436726    1.424932    1.860029  
H    2.376546    0.870418    3.15534   
H    1.124255    -1.84456    3.83879   
O    0.430695    -0.37361    -1.747789 
H    -1.051604   -0.253752   -2.011951 
C    1.139845    0.219125    -2.793551 
H    3.989976    0.167831    2.976739  
H    -4.129077   2.160413    1.037366  
H    -1.731859   -1.390151   1.050318  
N    1.424531    1.748926    -0.230005 
O    -2.376313   -2.140341   -1.451449 
H    -0.369      -1.759157   2.892241  
H    0.43437     -0.274728   3.386438  
C    -2.798179   -1.064276   -1.828992 
O    -2.045761   -0.046332   -2.200385 
C    -4.275913   -0.752124   -1.928755 
H    -4.581499   -0.763009   -2.979481 
H    -4.844904   -1.498193   -1.374121 
H    -4.464218   0.251292    -1.537375 
C    2.382869    2.569778    -0.653725 
H    -2.17387    3.499265    0.375007  
C    1.887068    3.875203    -0.757743 
H    3.366232    2.18163     -0.877782 
C    0.560358    3.780521    -0.372145 
H    -0.215057   4.526818    -0.297051 
H    2.414769    4.761851    -1.070991 
H    -0.452311   -3.341789   1.347798  
H    2.218388    -0.018802   -2.750066 
H    0.763596    -0.160143   -3.753705 
H    1.046887    1.317847    -2.81147  
O    -4.039586   -0.541203   1.427183  
C    -5.326246   0.015675    1.558897  
H    -5.656273   0.485101    0.623342  
H    -5.992311   -0.812558   1.800879  
H    -5.360946   0.758636    2.36575   
