60                                     
                                       
C    2.785793    1.934848    -0.865577 
C    1.604988    2.625243    -0.620325 
C    0.445571    1.884012    -0.428013 
C    0.380028    0.488594    -0.471617 
C    1.583294    -0.168454   -0.707202 
C    2.766784    0.543765    -0.906789 
H    0.461118    -2.732516   0.792828  
C    -2.432848   -2.059426   0.341575  
N    -0.801998   2.512558    -0.144298 
Co   -1.356229   -0.218953   0.00153   
C    -3.266359   -1.150252   -0.343769 
C    -2.623745   -0.82515    -1.593437 
C    -1.413684   -1.557068   -1.670295 
C    -1.254812   -2.275979   -0.439997 
C    -2.643148   -2.63825    1.704017  
C    -4.618636   -0.669594   0.097636  
C    -3.176424   0.087615    -2.647128 
C    -0.481684   -1.574598   -2.844457 
C    -0.122211   -3.170667   -0.026195 
H    -0.507445   -4.140591   0.306576  
H    -1.807947   -2.358063   2.354258  
H    -3.574404   -2.283492   2.15327   
H    -2.688004   -3.731352   1.649261  
H    -4.635474   -0.405053   1.159845  
H    -4.933521   0.206194    -0.477324 
H    -5.375632   -1.445867   -0.060093 
H    -3.624666   0.98492     -2.208305 
H    -2.391592   0.415402    -3.333621 
H    -0.886754   -2.223046   -3.629359 
O    -0.818309   -0.191805   1.809091  
H    0.626732    0.11021     2.165392  
C    -1.653251   0.425678    2.742016  
H    -3.948856   -0.417799   -3.237497 
H    3.712439    2.473436    -1.029427 
H    1.628167    -1.253074   -0.701312 
N    -1.851993   1.692406    0.024162  
O    2.202165    -1.630819   1.857545  
H    0.504716    -1.954063   -2.571629 
H    -0.34096    -0.57621    -3.266988 
C    2.440758    -0.542305   2.345507  
O    1.550916    0.422837    2.494827  
C    3.807282    -0.138989   2.849659  
H    3.739301    0.146457    3.902641  
H    4.507218    -0.962889   2.721013  
H    4.154431    0.732871    2.289069  
C    -2.89984    2.462452    0.297359  
H    1.604615    3.709884    -0.578422 
C    -2.520033   3.812522    0.302097  
H    -3.863466   2.013939    0.493052  
C    -1.167135   3.799558    0.018     
H    -0.45157    4.601239    -0.077901 
H    -3.140286   4.674443    0.489434  
H    0.557966    -3.361607   -0.860834 
H    -2.70085    0.085631    2.649454  
H    -1.318155   0.172389    3.757026  
H    -1.656102   1.525382    2.659423  
C    4.041359    -0.218841   -1.118659 
F    3.841483    -1.319077   -1.860311 
F    4.585211    -0.624786   0.039323  
F    4.97049     0.523885    -1.744383 
