59                                     
                                       
C    -3.079689   -1.826094   -1.217212 
C    -1.942616   -2.550919   -0.886592 
C    -0.781672   -1.836356   -0.611966 
C    -0.672329   -0.4405     -0.652305 
C    -1.830856   0.245982    -0.995206 
C    -3.023441   -0.43325    -1.275519 
H    -0.827706   2.760993    0.689318  
C    2.066447    2.023224    0.551525  
N    0.41859     -2.499702   -0.227022 
Co   1.021202    0.209537    0.024671  
C    2.968815    1.121347    -0.053159 
C    2.483565    0.84493     -1.382455 
C    1.298628    1.593429    -1.58451  
C    0.997913    2.28114     -0.361861 
C    2.11262     2.557553    1.947216  
C    4.252736    0.610918    0.535141  
C    3.154844    -0.042418   -2.387907 
C    0.515752    1.657972    -2.861216 
C    -0.160176   3.18985     -0.06732  
H    0.202309    4.156189    0.300336  
H    1.205327    2.260634    2.483567  
H    2.98337     2.184425    2.492762  
H    2.163859    3.651607    1.932883  
H    4.134849    0.30105     1.578489  
H    4.635683    -0.242037   -0.033066 
H    5.02606     1.38668     0.507837  
H    3.518846    -0.968274   -1.930755 
H    2.465437    -0.32095    -3.188869 
H    1.01064     2.334712    -3.566766 
O    0.297684    0.104774    1.767771  
H    -1.177731   -0.180111   1.962715  
C    1.04003     -0.539235   2.75863   
H    4.012251    0.464186    -2.8449   
H    -4.013588   -2.341144   -1.42946  
H    -1.866244   1.331699    -1.000079 
N    1.474385    -1.711041   0.031834  
O    -2.607976   1.660945    1.598864  
H    -0.496548   2.029698    -2.693485 
H    0.428993    0.676498    -3.334742 
C    -2.968539   0.533615    1.874623  
O    -2.153928   -0.480213   2.107107  
C    -4.424478   0.13803     1.982003  
H    -4.6532     -0.150022   3.01206   
H    -5.055709   0.972719    1.678792  
H    -4.611133   -0.734003   1.348452  
C    2.475055    -2.511619   0.380566  
H    -1.974241   -3.634435   -0.830388 
C    2.059261    -3.851149   0.342141  
H    3.431622    -2.091395   0.657224  
H    2.639126    -4.731397   0.569394  
C    0.734781    -3.798323   -0.048375 
H    0.008567    -4.579389   -0.210474 
C    -4.247449   0.331505    -1.60853  
O    -4.289113   1.530981    -1.747322 
H    -5.16429    -0.286198   -1.73069  
H    -0.751676   3.385683    -0.965497 
H    2.089861    -0.195033   2.780557  
H    0.606618    -0.318166   3.743627  
H    1.05683     -1.636219   2.643704  
