66                                     
                                       
C    -3.490916   -1.247993   -1.304187 
C    -2.204317   -1.744722   -1.446042 
C    -1.117917   -0.985637   -1.006342 
C    -1.275681   0.302788    -0.445909 
C    -2.565594   0.777082    -0.304771 
C    -3.667665   0.003938    -0.699443 
H    1.988758    3.679306    2.476417  
C    1.037681    3.124797    0.625723  
C    0.223122    -1.494474   -0.863296 
Co   0.390647    1.081155    0.15223   
C    2.116262    2.448713    0.006339  
C    1.673297    2.037167    -1.298865 
C    0.339153    2.470863    -1.477319 
C    -0.072471   3.117459    -0.259303 
C    3.529137    2.416745    0.516017  
C    2.494547    1.284088    -2.30366  
C    -0.481581   2.317987    -2.722497 
C    -1.359308   3.83771     0.007707  
C    1.002557    3.702887    2.006032  
H    0.665376    4.744518    1.976227  
H    3.585294    2.155075    1.57773   
H    4.144496    1.706561    -0.041652 
H    3.987906    3.405656    0.400889  
H    3.237681    0.646714    -1.815208 
H    1.865845    0.638424    -2.924297 
H    3.026201    1.972774    -2.969762 
H    -0.246114   1.385478    -3.243596 
H    -1.549606   2.299185    -2.493929 
H    -1.193881   4.921606    -0.002364 
O    -0.083071   0.71427     1.939111  
H    -0.86404    -0.657564   1.999381  
C    0.993043    0.418122    2.783666  
H    0.305176    3.134064    2.631669  
C    2.341987    -2.712585   -0.652426 
H    -0.288624   3.148337    -3.411165 
C    2.316231    -1.434656   -0.066829 
H    -4.339947   -1.842759   -1.617943 
H    -2.785489   1.711859    0.198761  
N    1.111972    -0.766125   -0.225024 
O    -3.230067   -1.145363   2.006582  
H    -1.766523   3.573168    0.989131  
H    -2.114575   3.611503    -0.747721 
C    -2.331957   -1.951983   1.897417  
O    -1.038626   -1.666752   1.975485  
C    -2.560018   -3.430678   1.66652   
H    -2.192231   -3.996683   2.527127  
H    -3.623252   -3.622076   1.52374   
H    -1.993378   -3.759261   0.790794  
H    -2.055373   -2.737898   -1.866342 
C    3.43942     -0.969817   0.623414  
C    3.477013    -3.518155   -0.598761 
C    4.593894    -3.031204   0.066106  
H    5.489445    -3.640808   0.123254  
C    4.569492    -1.770486   0.678649  
H    3.397735    -0.01118    1.125084  
H    3.483436    -4.501357   -1.057408 
H    5.445009    -1.419588   1.215096  
H    1.78213     1.190255    2.745973  
H    0.643213    0.36508     3.823741  
H    1.461414    -0.551355   2.545204  
S    0.788816    -3.060316   -1.373519 
O    -4.879962   0.53909     -0.440145 
C    -5.981408   -0.346184   -0.391212 
H    -5.755234   -1.195643   0.26263   
H    -6.81107    0.227454    0.021741  
H    -6.256285   -0.704688   -1.390545 
