59                                     
                                       
C    -3.737104   -1.386562   0.489164  
C    -2.686959   -2.150081   0.982619  
C    -1.365549   -1.744198   0.800194  
C    -1.043555   -0.583369   0.090373  
C    -2.110584   0.181694    -0.373568 
C    -3.447188   -0.194083   -0.180753 
H    2.134103    3.045836    -0.564847 
H    -2.908915   -3.06255    1.531831  
N    -0.350559   -2.54571    1.405495  
Co   0.770387    -0.000717   -0.164308 
C    2.19083     1.060148    -1.394614 
C    0.89445     0.94857     -2.025025 
C    0.632366    -0.432186   -2.242634 
C    1.678837    -1.170333   -1.61591  
C    2.675635    -0.234792   -1.152061 
C    3.947765    -0.628504   -0.46568  
C    2.836101    2.371066    -1.066622 
C    0.069421    2.125278    -2.456123 
C    -0.529787   -1.027287   -2.973333 
C    1.800823    -2.663452   -1.554989 
H    4.545149    0.244488    -0.193473 
H    3.743076    -1.197685   0.448225  
H    4.557257    -1.255785   -1.123477 
H    2.422096    -2.970302   -0.707382 
H    0.821976    -3.141457   -1.45238  
H    2.270131    -3.055732   -2.463446 
H    -0.884082   -1.941768   -2.490523 
H    -1.372026   -0.335432   -3.030218 
H    -0.222598   -1.27752    -3.994571 
H    -0.567231   3.248103    2.096444  
C    0.92809     2.137905    1.841663  
O    0.358375    3.113715    2.479194  
O    1.350935    -1.035454   1.371982  
H    -0.86193    1.809437    -2.931101 
O    0.335783    1.57427     0.907122  
O    -1.94258    3.104662    1.237349  
H    -2.828302   3.355749    1.534795  
H    -1.991312   2.177739    0.946943  
C    2.292697    1.765466    2.329488  
H    2.866853    2.670131    2.53748   
H    2.184338    1.209234    3.265518  
H    2.801207    1.132449    1.602439  
H    -0.184158   2.769731    -1.606199 
H    3.155973    2.868798    -1.988313 
H    -0.637334   -3.455727   1.744508  
C    0.881114    -2.149831   1.714604  
H    3.716274    2.251666    -0.431269 
C    1.745433    -3.076652   2.520248  
H    1.236413    -3.998448   2.805066  
H    2.639534    -3.322153   1.940663  
H    2.070966    -2.551342   3.421554  
O    -4.375776   0.655411    -0.67455  
C    -5.738836   0.283782    -0.561135 
H    -6.03903    0.198179    0.489387  
H    -6.307974   1.079741    -1.038804 
H    -5.931688   -0.663714   -1.076    
H    0.619584    2.732927    -3.181979 
H    -4.756399   -1.718195   0.642539  
H    -1.936361   1.096621    -0.939775 
