58                                     
                                       
C    -3.170743   1.460642    0.990126  
C    -2.026879   2.226566    1.187805  
C    -0.779825   1.708243    0.824339  
C    -0.628349   0.431561    0.271746  
C    -1.797898   -0.290903   0.047134  
C    -3.050141   0.204961    0.405938  
H    2.482499    -2.707303   -1.883249 
H    -2.106321   3.218197    1.627941  
N    0.349718    2.560806    0.981179  
Co   1.118789    -0.304779   -0.02514  
C    2.497524    -1.951725   0.123256  
C    1.17486     -2.301162   0.598895  
C    0.885088    -1.492646   1.72771   
C    1.949044    -0.547611   1.861786  
C    2.9751      -0.890085   0.906276  
C    4.27284     -0.156578   0.765947  
C    3.166958    -2.624229   -1.033935 
C    0.336949    -3.402238   0.022887  
C    -0.317814   -1.581254   2.61401   
C    2.078056    0.493979    2.932803  
H    4.839115    -0.500507   -0.10106  
H    4.109343    0.919994    0.652493  
H    4.89077     -0.308987   1.656558  
H    2.702642    1.330227    2.6021    
H    1.102908    0.89229     3.226312  
H    2.548676    0.068179    3.825538  
H    -0.635307   -0.595184   2.96375   
H    -1.169242   -2.042965   2.108754  
H    -0.073325   -2.190102   3.491196  
H    0.170708    1.564181    -2.172935 
C    0.416276    -0.210225   -2.931116 
O    0.112414    1.055417    -3.01795  
O    1.755989    1.485163    -0.450177 
H    -0.668524   -3.409944   0.450001  
O    0.774784    -0.779243   -1.896626 
O    -0.428028   3.277812    -1.652711 
H    -0.594553   3.695225    -2.511673 
H    -1.304258   3.150486    -1.25536  
C    0.289485    -0.948328   -4.226085 
H    -0.739851   -0.868948   -4.585403 
H    0.935547    -0.479759   -4.972784 
H    0.562331    -1.993198   -4.091393 
H    4.054678    -2.081186   -1.363404 
H    3.474272    -3.636883   -0.752488 
H    0.189473    3.435321    1.466857  
C    1.459069    2.493237    0.234241  
H    0.246995    -3.299506   -1.063439 
C    2.337466    3.705211    0.18534   
H    2.248724    4.318437    1.084398  
H    3.374958    3.404384    0.039531  
H    2.020464    4.300054    -0.677954 
C    -4.247819   -0.676056   0.183264  
F    -4.117325   -1.827647   0.859964  
F    -5.382617   -0.093092   0.575569  
F    -4.373798   -0.998837   -1.111657 
H    0.792148    -4.376576   0.228584  
H    -4.14415    1.838185    1.28209   
H    -1.739154   -1.285872   -0.393821 
