61                                     
                                       
C    -3.639658   -0.860993   0.993757  
C    -3.240614   0.442844    0.715858  
C    -1.883169   0.655155    0.40387   
C    -0.946712   -0.376939   0.373345  
C    -1.411762   -1.668446   0.637     
C    -2.743963   -1.935667   0.953812  
H    3.559425    -1.7066     -1.028967 
C    -4.236961   1.577302    0.713916  
N    -1.50779    1.976374    0.010987  
Co   0.897722    0.004957    0.008147  
C    2.986264    -0.284336   0.470532  
C    2.118702    -1.062834   1.328344  
C    1.325107    -0.161993   2.085623  
C    1.589372    1.154155    1.598275  
C    2.669866    1.070955    0.645761  
C    3.260225    2.252179    -0.060211 
C    3.998736    -0.887284   -0.452237 
C    2.162451    -2.557235   1.434128  
C    0.36679     -0.507766   3.181448  
C    0.997949    2.428291    2.12303   
H    3.999218    1.949742    -0.803998 
H    2.486906    2.831823    -0.574972 
H    3.754011    2.914965    0.6575    
H    1.003116    3.21404     1.360319  
H    -0.033107   2.285009    2.457381  
H    1.579413    2.797119    2.975002  
H    -0.512997   0.140821    3.166847  
H    0.017268    -1.539199   3.103379  
H    0.865086    -0.387834   4.149578  
H    -0.818832   -0.118412   -2.425414 
C    0.495766    -1.547771   -2.506095 
O    -0.498354   -0.859194   -2.995352 
O    0.328693    1.415423    -1.206197 
H    1.333827    -2.942445   2.032624  
O    1.044196    -1.32689    -1.423488 
O    -2.460638   0.869962    -2.424955 
H    -2.829555   0.678096    -3.300257 
H    -2.992321   0.350673    -1.799481 
H    1.721226    -3.247494   -2.90146  
H    0.089234    -3.300734   -3.64064  
H    1.323746    -2.247302   -4.329304 
H    4.398241    -0.153182   -1.154441 
H    4.835841    -1.295851   0.12356   
H    -2.183495   2.71039     0.180552  
C    -0.550077   2.25211     -0.87543  
H    2.113304    -3.021838   0.443806  
C    -0.571255   3.595222    -1.538377 
H    -1.125836   4.337228    -0.960852 
H    0.448508    3.94193     -1.70869  
H    -1.060322   3.469533    -2.510228 
H    -4.682971   -1.046566   1.239581  
H    -3.988684   2.345346    1.456852  
H    -4.293439   2.063529    -0.268477 
H    -5.23606    1.211124    0.95625   
C    -3.213396   -3.331914   1.270184  
H    -2.467601   -4.076297   0.981325  
H    -3.401232   -3.445131   2.343092  
H    -4.14739    -3.564381   0.75062   
H    3.094568    -2.881536   1.908506  
C    0.943658    -2.666423   -3.39358  
H    -0.708142   -2.501081   0.605749  
