70                                     
                                       
C    1.184257    3.783894    0.755844  
C    1.791645    2.568974    0.452958  
C    1.027474    1.392161    0.451574  
C    -0.36353    1.434661    0.663996  
C    -0.945924   2.662311    0.987484  
C    -0.179315   3.82725     1.051783  
H    -3.921689   -0.750089   -1.733179 
H    2.844836    2.563811    0.19151   
C    1.475659    0.027018    0.032478  
Co   -1.242936   -0.184796   0.121932  
C    -3.121445   -0.284353   1.022337  
C    -2.11969    -0.450191   2.025648  
C    -1.32474    -1.57034    1.654159  
C    -1.921465   -2.18518    0.492291  
C    -3.025714   -1.399731   0.115067  
C    -3.959712   -1.597095   -1.039362 
C    -4.202642   0.753793    0.968155  
C    -1.929678   0.390897    3.248703  
C    -0.103101   -2.078444   2.358371  
C    -1.377098   -3.409171   -0.179138 
H    -0.344152   -3.248546   -0.509032 
H    -1.377301   -4.256534   0.513545  
H    0.608491    -2.50284    1.642363  
H    0.403183    -1.277047   2.904655  
H    -0.363281   -2.861286   3.078479  
H    -0.874329   0.493549    3.511798  
H    -2.34008    1.394407    3.12196   
H    -2.446397   -0.079288   4.092279  
H    -4.285737   1.192517    -0.031376 
H    -0.593659   2.029661    -3.171367 
C    -1.083897   0.268873    -2.697996 
O    -0.617846   1.096016    -3.576082 
O    0.545137    -0.690428   -0.468679 
H    -3.738031   -2.511759   -1.593411 
O    -1.561208   0.681607    -1.621037 
O    -0.529214   3.289688    -2.209181 
H    0.33231     3.628442    -1.922702 
H    -0.957209   2.97087     -1.39551  
C    -0.986565   -1.178374   -3.066562 
H    -0.954881   -1.29242    -4.149911 
H    -0.060779   -1.57124    -2.632929 
H    -1.825353   -1.731249   -2.642311 
H    -5.172789   0.311025    1.218248  
H    -4.988832   -1.673576   -0.67375  
H    -1.971265   -3.692014   -1.050847 
H    -4.021467   1.562372    1.680016  
N    2.710681    -0.473646   0.113951  
C    3.768632    0.198234    0.909489  
C    4.899769    0.736477    0.036855  
C    4.283501    -0.642752   2.08469   
H    3.25966     1.037168    1.376839  
H    4.517579    1.354041    -0.781984 
H    5.570054    1.347232    0.648665  
H    5.496561    -0.07003    -0.397469 
H    3.463754    -1.177881   2.572541  
H    5.056454    -1.356438   1.801659  
H    4.722488    0.039531    2.818153  
C    2.958509    -1.703938   -0.699933 
C    4.058836    -2.625829   -0.190947 
C    3.192066    -1.296137   -2.157054 
H    2.024004    -2.264069   -0.647405 
H    3.867986    -2.975691   0.825116  
H    4.071626    -3.501306   -0.846216 
H    5.052909    -2.175555   -0.236884 
H    2.385618    -0.649678   -2.517526 
H    4.140787    -0.763906   -2.272056 
H    3.225801    -2.186749   -2.791058 
H    1.77478     4.694142    0.763475  
H    -2.018253   2.727375    1.161843  
H    -0.64883    4.77495     1.298438  
