65                                     
                                       
C    1.342008    3.835235    0.371593  
C    1.840035    2.558494    0.598947  
C    1.003285    1.454357    0.397953  
C    -0.360943   1.599916    0.075975  
C    -0.816092   2.891203    -0.203091 
C    0.027521    3.99657     -0.067437 
H    -2.731211   -1.776307   -2.384122 
H    2.860713    2.434074    0.94771   
C    1.388294    0.027342    0.516008  
Co   -1.257967   -0.11395    0.054884  
C    -3.299119   0.102827    -0.288755 
C    -3.012737   0.593229    1.019805  
C    -2.399586   -0.460264   1.74982   
C    -2.443099   -1.655417   0.941839  
C    -3.000804   -1.309626   -0.301304 
C    -3.216534   -2.189805   -1.493703 
C    -3.934179   0.844606    -1.426563 
C    -3.312084   1.952862    1.570106  
C    -1.869487   -0.386652   3.148362  
C    -1.915213   -2.98348    1.392537  
H    -0.85721    -2.911048   1.669336  
H    -2.464628   -3.32958    2.273634  
H    -0.97264    -1.002521   3.257574  
H    -1.609426   0.639603    3.419411  
H    -2.617533   -0.745837   3.863444  
H    -2.442619   2.401778    2.056849  
H    -3.662721   2.637826    0.796209  
H    -4.108932   1.863223    2.316082  
H    -3.463251   0.583392    -2.378986 
H    1.41409     0.081326    -2.910167 
C    0.342689    -1.239489   -2.093997 
O    1.381255    -0.92483    -2.808081 
O    0.43547     -0.7848     0.7661    
H    -2.835197   -3.199612   -1.327897 
O    -0.484439   -0.371796   -1.763677 
O    1.479776    1.680093    -2.649711 
H    1.46062     2.295815    -3.396828 
H    0.732954    1.919699    -2.071379 
C    0.214297    -2.691144   -1.753371 
H    -0.471045   -3.151167   -2.473257 
H    1.179928    -3.19081    -1.825059 
H    -0.203968   -2.797558   -0.751143 
H    -4.999375   0.6013      -1.502495 
H    -4.286941   -2.268123   -1.710142 
H    -2.018846   -3.746548   0.617664  
H    -3.850159   1.926463    -1.299356 
C    2.949213    -1.83918    0.612201  
C    3.715567    0.274592    -0.354804 
C    4.160644    -1.868988   1.547273  
H    3.182606    -2.342008   -0.336388 
H    2.077149    -2.316148   1.056833  
C    4.936751    0.322698    0.558636  
H    3.950803    -0.310436   -1.254896 
H    3.374214    1.249953    -0.693332 
C    5.345049    -1.100357   0.954748  
H    4.433428    -2.910965   1.739822  
H    3.868689    -1.425367   2.506647  
H    5.755752    0.830573    0.040707  
H    4.698059    0.90933     1.455101  
H    6.173015    -1.075005   1.668334  
H    5.708758    -1.627282   0.062734  
N    2.614489    -0.440894   0.307301  
H    1.975943    4.701107    0.529181  
H    -1.845439   3.054543    -0.511457 
H    -0.351259   4.992708    -0.277067 
