63                                     
                                       
C    2.669335    3.496208    -0.861611 
C    1.284775    3.419786    -0.78729  
C    0.670516    2.186039    -0.54515  
C    1.411516    0.99925     -0.382502 
C    2.802597    1.110916    -0.447152 
C    3.428204    2.339808    -0.684511 
O    2.633937    -0.894134   1.742667  
H    0.695897    4.324965    -0.900719 
C    -0.778554   2.042767    -0.330195 
Co   0.256511    -0.562145   -0.198377 
C    0.18435     -0.977619   -2.235898 
C    1.338302    -1.648956   -1.693511 
C    0.883045    -2.547594   -0.707835 
C    -0.558344   -2.517536   -0.691846 
C    -0.97864    -1.589175   -1.670207 
C    0.192397    0.051118    -3.326321 
C    2.74338     -1.507406   -2.18523  
C    1.711309    -3.460114   0.143816  
C    -1.399726   -3.452098   0.125736  
C    -2.382842   -1.252316   -2.068938 
H    2.943314    -0.50702    -2.573638 
H    3.474491    -1.727605   -1.403064 
H    2.905129    -2.2231     -2.999065 
H    2.757037    -3.150358   0.171269  
H    1.340304    -3.486512   1.173226  
H    1.665725    -4.482081   -0.248482 
H    -1.117001   -3.433828   1.184244  
H    -2.462437   -3.210947   0.053175  
H    -1.265723   -4.479958   -0.228181 
H    3.398717    -0.434969   2.183719  
H    3.972702    1.616365    1.733227  
O    4.180465    1.040964    2.489728  
H    5.093867    1.231871    2.74553   
H    1.107691    0.648285    -3.299282 
H    0.120968    -0.423196   -4.311008 
H    -3.787472   3.624204    -0.337397 
H    -1.410877   4.037281    -0.903983 
H    -3.116524   -1.621789   -1.35008  
C    -2.422348   0.619204    0.539989  
C    -3.423226   1.612277    0.37852   
C    -3.036846   2.853067    -0.186777 
O    0.441457    -0.74904    1.760826  
C    1.508458    -0.658237   2.371649  
C    -1.727145   3.081595    -0.504899 
H    3.153394    4.447907    -1.053416 
H    3.424209    0.228853    -0.324827 
H    4.51248     2.389731    -0.756864 
C    1.558956    -0.310902   3.827543  
H    2.003677    -1.140768   4.384473  
H    2.201562    0.564526    3.96361   
H    0.555675    -0.10734    4.196227  
N    -1.14094    0.837449    0.107256  
H    -2.525019   -0.1717     -2.171538 
H    -2.599766   -1.70533    -3.042387 
H    -0.652759   0.739538    -3.226678 
C    -2.753558   -0.598133   1.179953  
C    -4.043158   -0.828144   1.591515  
H    -4.287806   -1.759374   2.093118  
C    -4.748917   1.337912    0.796985  
C    -5.057064   0.137106    1.38356   
H    -6.071129   -0.069183   1.708019  
H    -1.96789    -1.318306   1.369736  
H    -5.509143   2.100353    0.654294  
