56                                     
                                       
C    -3.594495   1.371271    1.655765  
C    -2.709626   2.171789    0.944621  
C    -1.494274   1.617054    0.540629  
C    -1.106372   0.287254    0.791834  
C    -2.028873   -0.490174   1.498136  
C    -3.246439   0.046364    1.935326  
O    -1.460928   -2.112971   -1.016836 
H    -2.947484   3.204619    0.707656  
C    -0.488511   2.343347    -0.222484 
Co   0.645554    -0.150893   -0.005765 
C    1.892798    -1.882289   -0.13412  
C    2.678985    -0.696147   -0.235548 
C    2.515176    0.02864     0.988058  
C    1.585204    -0.668139   1.801958  
C    1.19932     -1.867701   1.102493  
C    1.777944    -2.940183   -1.187165 
C    3.5592      -0.340214   -1.397334 
C    3.17101     1.323323    1.365844  
C    1.158739    -0.264013   3.179993  
C    0.357967    -2.984386   1.643398  
H    0.98712     -3.855982   1.852464  
H    0.858668    -3.518809   -1.069243 
H    1.791435    -2.508822   -2.19227  
H    2.624171    -3.63183    -1.113384 
H    3.056845    -0.531431   -2.350651 
H    3.845914    0.713979    -1.378885 
H    4.480275    -0.932136   -1.383562 
H    3.817005    1.693271    0.566867  
H    2.433865    2.098035    1.600446  
H    -2.431513   -2.342315   -1.044271 
H    -3.982861   -1.239837   -0.03357  
O    -4.018342   -1.872727   -0.772329 
H    -4.801026   -2.424367   -0.632213 
H    0.311609    4.344905    -2.328634 
H    3.796195    1.179939    2.252728  
C    1.388024    2.631245    -1.398814 
C    0.573792    3.94537     -1.34993  
H    -3.926667   -0.57198    2.517429  
C    -1.994557   -1.160612   -3.173445 
H    -4.541175   1.773144    2.000768  
H    -1.810801   -1.531967   1.719333  
O    -0.171363   -0.502263   -1.774572 
C    -1.152233   -1.232441   -1.937671 
H    -1.954752   -2.121085   -3.695554 
H    -3.035468   -0.980135   -2.887579 
H    -1.635013   -0.366737   -3.824851 
N    0.620366    1.753712    -0.51596  
H    1.201765    0.821268    3.303929  
H    0.135223    -0.580608   3.393772  
H    1.820192    -0.71497    3.927748  
H    1.435026    2.194704    -2.402153 
H    -0.123187   -2.698524   2.581291  
H    -0.416058   -3.29059    0.934112  
O    -0.659173   3.574817    -0.67935  
H    2.40799     2.764817    -1.030422 
H    1.051944    4.720584    -0.74849  
