71                                     
                                       
C    1.716682    3.068846    -0.556827 
C    0.43898     2.557582    -0.765957 
C    0.195446    1.206177    -0.50595  
C    1.215145    0.314129    -0.096159 
C    2.468279    0.86371     0.160954  
C    2.709806    2.221941    -0.064919 
O    -0.934084   -0.090077   2.694182  
N    -1.110373   -0.772566   -0.349401 
C    -1.108643   0.546715    -0.507008 
Co   0.656637    -1.566227   -0.08044  
C    1.346905    -2.088697   -1.9597   
C    2.449014    -2.238538   -1.04663  
C    2.058715    -3.163076   -0.057072 
C    0.759251    -3.688637   -0.414694 
C    0.357152    -3.067494   -1.613643 
C    1.315142    -1.202412   -3.167711 
C    3.795403    -1.608672   -1.211226 
C    2.832798    -3.598289   1.148726  
C    0.044475    -4.741336   0.376794  
C    -0.890492   -3.306562   -2.407249 
H    3.734932    -0.604613   -1.636364 
H    4.347624    -1.554964   -0.27008  
H    4.382295    -2.227093   -1.899708 
H    3.650952    -2.910536   1.373706  
H    2.182571    -3.650786   2.026844  
H    3.263417    -4.592389   0.98721   
H    -0.210644   -4.376115   1.378027  
H    -0.873322   -5.065914   -0.118898 
H    0.681052    -5.623314   0.499762  
H    -0.28818    0.547271    2.277994  
H    1.074119    2.396649    1.733904  
O    0.402432    2.11488     2.375999  
H    0.743262    2.357924    3.249043  
H    3.281983    0.254467    0.540845  
C    -1.487355   -2.237186   3.462912  
H    -1.543559   -4.041868   -1.934094 
C    -2.424283   -1.164731   -0.180965 
H    -0.348212   3.216939    -1.11557  
H    -1.465013   -2.386275   -2.549045 
H    -0.620738   -3.685748   -3.398411 
H    1.938469    4.111428    -0.753658 
O    0.220797    -1.825075   1.844078  
C    -0.644012   -1.355756   2.593958  
H    -1.676078   -1.762171   4.42599   
H    -2.449846   -2.37647    2.957101  
H    -1.006472   -3.206069   3.590853  
C    -3.235468   -0.023001   -0.278604 
C    -2.987473   -2.41499    0.092464  
C    -4.620007   -0.074013   -0.131067 
C    -4.364442   -2.472804   0.243766  
H    -4.838061   -3.425672   0.454815  
C    -5.167721   -1.321258   0.128457  
H    -2.361554   -3.297224   0.18994   
H    -6.241107   -1.412464   0.253478  
H    -5.230487   0.819664    -0.204397 
H    0.287766    -0.927322   -3.42371  
H    1.873958    -0.278659   -2.993761 
H    1.753414    -1.706851   -4.035702 
N    -2.368939   1.047792    -0.488041 
C    -2.765398   2.425803    -0.480135 
C    -2.44756    3.214567    0.623447  
C    -3.478774   2.93301     -1.561461 
C    -2.843033   4.548359    0.627898  
H    -1.881462   2.788368    1.447989  
C    -3.878362   4.266975    -1.538789 
H    -3.70832    2.289811    -2.405669 
C    -3.558141   5.072441    -0.448398 
H    -2.598717   5.177694    1.477109  
H    -4.435106   4.675759    -2.375167 
H    -3.868285   6.112033    -0.435847 
Br   4.421428    2.922612    0.30326   
