59                                     
                                       
C    2.414216    3.064874    -0.762945 
C    1.082078    3.273253    -0.432355 
C    0.25429     2.172286    -0.190386 
C    0.706357    0.841797    -0.332538 
C    2.053529    0.664832    -0.626747 
C    2.908212    1.760005    -0.812834 
O    1.785243    -1.676221   1.192602  
H    0.708037    4.28822     -0.340295 
C    -1.119493   2.299778    0.330056  
Co   -0.688529   -0.476201   -0.009018 
C    -0.977431   -0.897676   -2.044029 
C    -0.125385   -1.912234   -1.472854 
C    -0.867356   -2.572355   -0.465413 
C    -2.166843   -1.980592   -0.386767 
C    -2.241826   -0.979047   -1.399823 
C    -0.631535   0.004845    -3.18945  
C    1.235888    -2.294272   -1.965831 
C    -0.407563   -3.703918   0.400335  
C    -3.256286   -2.457711   0.529233  
C    -3.426423   -0.124119   -1.736635 
H    1.698229    -1.482124   -2.531243 
H    1.901795    -2.564173   -1.142134 
H    1.158414    -3.158388   -2.634414 
H    0.658416    -3.897649   0.275551  
H    -0.600694   -3.501177   1.459122  
H    -0.956475   -4.614479   0.136381  
H    -2.932614   -2.466582   1.575927  
H    -4.152466   -1.836902   0.453632  
H    -3.55175    -3.480174   0.270996  
H    2.790125    -1.633262   1.371287  
H    4.466489    -0.597657   0.626974  
O    4.250249    -1.167821   1.400938  
H    4.982367    -1.793851   1.493354  
H    0.427176    0.275412    -3.178338 
H    -0.84899    -0.488017   -4.143064 
H    -3.273734   0.074474    1.436078  
H    -4.564451   2.133579    2.01827   
H    -3.574294   4.363743    1.426244  
H    -4.19884    -0.174005   -0.965993 
C    -2.888987   1.064195    1.209922  
C    -3.6003     2.210781    1.530346  
O    -0.097174   -0.755468   1.849997  
C    1.061621    -1.105841   2.112572  
C    -3.042574   3.444291    1.204144  
H    3.076808    3.908489    -0.936942 
H    2.479887    -0.329765   -0.716637 
C    1.649662    -0.918031   3.477337  
H    1.779375    -1.897328   3.948361  
H    2.638904    -0.459651   3.386611  
H    0.993903    -0.300503   4.087757  
N    -1.694941   1.109032    0.610807  
H    -3.147289   0.926269    -1.865427 
H    -3.872467   -0.466253   -2.676226 
H    -1.209779   0.932273    -3.152835 
C    -1.789754   3.491115    0.607322  
H    -1.330457   4.442776    0.367977  
C    4.353608    1.535755    -1.005998 
O    4.92552     0.502521    -0.707412 
H    4.932297    2.374755    -1.432118 
