64                                     
                                       
C    2.874813    1.977294    -0.458518 
C    1.645263    2.599727    -0.291475 
C    0.465475    1.854712    -0.220545 
C    0.481219    0.451783    -0.344485 
C    1.716964    -0.15616    -0.524249 
C    2.908439    0.583183    -0.568507 
O    0.805304    -1.81704    1.720286  
H    1.627417    3.681174    -0.191417 
C    -0.846397   2.437958    0.081956  
Co   -1.259122   -0.363549   -0.042404 
C    -1.466963   -1.114318   -1.994428 
C    -1.027536   -2.176269   -1.125381 
C    -2.030409   -2.367022   -0.143804 
C    -3.086612   -1.43715    -0.376522 
C    -2.745278   -0.686866   -1.544404 
C    -0.754858   -0.618647   -3.215936 
C    0.173113    -3.049721   -1.326037 
C    -1.997944   -3.357464   0.97838   
C    -4.359295   -1.388855   0.419478  
C    -3.564626   0.382613    -2.202912 
H    0.865558    -2.611825   -2.048439 
H    0.707974    -3.224979   -0.388317 
H    -0.139225   -4.022394   -1.72087  
H    -0.985301   -3.724282   1.157938  
H    -2.3767     -2.919057   1.906716  
H    -2.633549   -4.216264   0.735528  
H    -4.172129   -1.210616   1.484336  
H    -5.035625   -0.611315   0.056069  
H    -4.893711   -2.34102    0.337971  
H    1.760523    -1.851255   2.009559  
H    3.694828    -0.861983   1.330316  
O    3.337275    -1.334674   2.104068  
H    4.091355    -1.707525   2.581057  
H    0.329483    -0.646185   -3.084154 
H    -1.013052   -1.23561    -4.083442 
H    -3.767875   1.102808    0.790864  
H    -4.394383   3.493431    1.112551  
H    -2.638382   5.246883    0.714012  
H    -4.393575   0.709731    -1.571676 
C    -3.046523   1.897134    0.631258  
C    -3.388392   3.226849    0.81206   
O    -0.908334   -0.449729   1.90214   
C    0.127584    -0.914522   2.385257  
C    -2.407628   4.193288    0.594354  
H    3.789434    2.551449    -0.48216  
H    1.789293    -1.239848   -0.587716 
C    0.636914    -0.481653   3.724829  
H    0.744188    -1.34982    4.38085   
H    1.629268    -0.038301   3.591733  
H    -0.043679   0.243694    4.165717  
N    -1.818852   1.514191    0.258978  
H    -2.961404   1.262647    -2.445351 
H    -3.989289   0.001687    -3.137424 
H    -1.031636   0.413861    -3.444029 
C    -1.128756   3.797827    0.234695  
H    -0.349191   4.533057    0.074709  
N    4.107649    -0.164146   -0.691932 
H    3.99284     -1.067926   -1.136603 
C    5.413316    0.328484    -0.661561 
O    5.684092    1.440852    -0.272194 
C    6.452927    -0.656889   -1.149822 
H    6.207895    -1.690783   -0.891954 
H    6.531884    -0.584518   -2.239299 
H    7.415926    -0.386596   -0.717971 
