59                                     
                                       
C    3.155239    1.942834    1.517198  
C    3.144503    0.684875    0.883783  
C    1.893535    0.155177    0.50478   
C    0.657201    0.808357    0.711536  
C    0.724119    2.050679    1.324371  
C    1.96051     2.60574     1.732913  
O    -0.980083   2.57077     -1.14195  
C    4.335808    -0.077086   0.601689  
C    1.851692    -1.107089   -0.167953 
Co   -0.829329   -0.26019    0.008655  
C    -2.41087    0.506311    1.189556  
C    -2.960505   -0.044256   0.005876  
C    -2.616899   -1.426707   -0.06357  
C    -1.88228    -1.743492   1.122336  
C    -1.726912   -0.555519   1.885188  
C    -2.653041   1.896326    1.694444  
C    -3.741334   0.700082    -1.031938 
C    -3.067198   -2.359554   -1.150921 
C    -1.33833    -3.084118   1.51553   
C    -1.058756   -0.454232   3.222206  
H    -2.434022   2.648142    0.930956  
H    -3.703361   2.007041    1.984068  
H    -3.546837   1.773906    -0.981324 
H    -3.500432   0.349013    -2.039705 
H    -4.814231   0.543157    -0.874633 
H    -2.737272   -2.025301   -2.140896 
H    -2.69631    -3.374975   -0.991531 
H    -4.160213   -2.417946   -1.17358  
H    -1.35652    -3.792486   0.684503  
H    -0.505819   3.44336     -1.227131 
H    1.407875    3.884781    -0.308872 
O    0.927234    4.312275    -1.039592 
H    1.060265    5.265854    -0.943092 
H    -1.782015   -0.646388   4.022055  
H    -0.501452   -2.963259   -1.501257 
H    1.464255    -4.38157    -2.085474 
H    3.74826     -3.638628   -1.396733 
H    -0.306733   -3.012377   1.872625  
C    0.501105    -2.670082   -1.206027 
C    1.611242    -3.4594     -1.536043 
C    2.872068    -3.043445   -1.154812 
O    -0.646109   0.500606    -1.802223 
C    -0.552629   1.708637    -2.032713 
C    3.021538    -1.830681   -0.457855 
H    4.09735     2.377271    1.838933  
H    -0.179245   2.627892    1.503475  
C    0.014891    2.224801    -3.318296 
H    -0.752289   2.795113    -3.850189 
H    0.842362    2.905779    -3.096208 
H    0.358175    1.395435    -3.933252 
N    0.615108    -1.53462    -0.528782 
H    -1.942661   -3.506511   2.324974  
H    -0.250444   -1.183921   3.318028  
H    -0.627408   0.53683     3.379708  
H    1.967939    3.565348    2.245353  
C    4.28082     -1.275589   -0.035431 
H    -2.046655   2.10986     2.576979  
H    5.294121    0.331642    0.909563  
H    5.188019    -1.83422    -0.244512 
