63                                     
                                       
C    -1.661982   3.275411    1.529397  
C    -0.42007    3.251873    0.905689  
C    0.151409    2.033555    0.508521  
C    -0.542948   0.818112    0.701339  
C    -1.789505   0.872811    1.327788  
C    -2.345275   2.083243    1.753231  
O    -2.519304   -0.929364   -0.933519 
H    0.073724    4.194724    0.722498  
C    1.440767    1.896834    -0.212375 
Co   0.378998    -0.737011   -0.002248 
C    0.813335    -1.527303   1.897744  
C    -0.322706   -2.22504    1.350215  
C    0.103269    -2.864411   0.161709  
C    1.486295    -2.579392   -0.047318 
C    1.926642    -1.778195   1.049317  
C    0.850049    -0.766586   3.188188  
C    -1.661395   -2.402899   1.999694  
C    -0.745464   -3.694345   -0.750636 
C    2.307985    -3.154039   -1.164944 
C    3.311821    -1.254031   1.284506  
H    -1.801116   -1.703333   2.826394  
H    -2.47945    -2.266918   1.286142  
H    -1.740305   -3.415432   2.409658  
H    -1.808467   -3.499464   -0.593678 
H    -0.508428   -3.500504   -1.801287 
H    -0.563956   -4.758479   -0.563162 
H    1.875493    -2.93352    -2.147436 
H    3.33345     -2.776943   -1.150536 
H    2.365163    -4.243616   -1.07268  
H    -3.396414   -0.443826   -0.96948  
H    -3.726629   1.462846    -0.18225  
O    -4.279484   0.933242    -0.784145 
H    -0.11211    -0.295159   3.401615  
H    1.096736    -1.437462   4.01816   
H    2.691428    -0.700014   -1.823636 
H    4.430994    0.986241    -2.471533 
H    4.250865    3.278862    -1.494593 
H    3.942589    -1.357774   0.398818  
C    2.650207    0.324076    -1.468528 
C    3.609251    1.257464    -1.819815 
C    3.492289    2.530979    -1.281103 
O    -0.504719   -0.641936   -1.765213 
C    -1.726829   -0.556444   -1.908268 
C    2.413378    2.88517     -0.469411 
H    -2.089341   4.222564    1.841532  
H    -2.353474   -0.040756   1.488824  
C    -2.340065   -0.063944   -3.182633 
H    -2.89894    -0.880111   -3.650355 
H    -3.049548   0.73766     -2.955981 
H    -1.564199   0.290319    -3.858212 
N    1.625098    0.634053    -0.672334 
H    3.301198    -0.195985   1.564863  
H    3.787135    -1.809311   2.099655  
H    1.604623    0.024242    3.160249  
H    -3.303794   2.092285    2.268355  
C    2.37822     4.282164    0.094641  
H    1.645219    4.911457    -0.420201 
H    2.140189    4.2828      1.161241  
H    3.35555     4.752495    -0.031354 
C    -5.653482   1.070954    -0.416316 
H    -6.229622   0.461427    -1.11174  
H    -5.829119   0.717507    0.604302  
H    -5.971187   2.112491    -0.507941 
