62                                     
                                       
C    -3.025422   1.846065    1.617458  
C    -1.954121   2.458736    0.938458  
C    -0.881327   1.637069    0.534269  
C    -0.817434   0.243196    0.76036   
C    -1.903528   -0.312827   1.420024  
C    -2.991175   0.483392    1.852465  
O    -1.589161   -2.078945   -1.027093 
C    -1.904137   3.866971    0.632232  
C    0.205666    2.22377     -0.188334 
Co   0.825803    -0.517406   0.006219  
C    1.001321    -2.252055   1.208623  
C    1.706336    -2.470545   -8.4e-05  
C    2.726827    -1.481683   -0.124871 
C    2.67914     -0.668941   1.05116   
C    1.603439    -1.117018   1.863239  
C    -0.060125   -3.148883   1.76946   
C    1.41466     -3.535907   -1.010275 
C    3.715713    -1.421      -1.253438 
C    3.581524    0.478906    1.391582  
C    1.232423    -0.568883   3.207278  
H    -0.846956   -3.351345   1.037252  
H    0.381776    -4.10719    2.062203  
H    0.392391    -3.90815    -0.911602 
H    1.55436     -3.166764   -2.030602 
H    2.09744     -4.380911   -0.867819 
H    3.221878    -1.316572   -2.225983 
H    4.415082    -0.589961   -1.133858 
H    4.311814    -2.338682   -1.286879 
H    4.16497     0.809978    0.529817  
H    -2.592491   -2.084982   -1.053355 
H    -3.815513   -0.648934   -0.159218 
O    -4.038229   -1.340217   -0.808212 
H    1.787883    -1.08973    3.994675  
H    2.939802    1.098552    -1.609061 
H    3.156349    3.500967    -2.240564 
H    1.393954    5.1145      -1.510254 
H    3.017632    1.338703    1.765123  
C    2.194655    1.823394    -1.296588 
C    2.30675     3.174246    -1.652937 
C    1.328879    4.062004    -1.248464 
C    0.232422    3.593883    -0.501785 
O    0.009944    -0.766074   -1.773022 
C    -1.09308    -1.291288   -1.948419 
H    -3.863739   2.447263    1.95742   
H    -1.942691   -1.381119   1.616847  
C    -1.876476   -1.076435   -3.206457 
H    -1.958536   -2.025746   -3.744315 
H    -2.889371   -0.751616   -2.949545 
H    -1.383331   -0.335594   -3.832408 
N    1.182313    1.363163    -0.572543 
H    4.286283    0.177252    2.173343  
H    1.466508    0.496434    3.279848  
H    0.164563    -0.685063   3.405604  
H    -3.808923   0.014758    2.395972  
C    -0.864058   4.410914    -0.051753 
H    -0.51722    -2.7142     2.660738  
H    -2.727525   4.495308    0.960014  
H    -0.844678   5.472505    -0.278625 
C    -5.287688   -1.937463   -0.455329 
H    -6.08717    -1.192933   -0.47909  
H    -5.493982   -2.704134   -1.201467 
H    -5.240984   -2.400598   0.535043  
