57                                     
                                       
C    3.225624    0.061589    2.464057  
C    2.913       -0.919533   1.525684  
C    1.72413     -0.802786   0.800892  
C    0.799535    0.240021    1.015425  
C    1.15717     1.221628    1.939347  
C    2.358689    1.142185    2.650741  
O    1.201585    2.839032    -1.164169 
N    0.254295    -1.346266   -0.986355 
C    1.363598    -1.643607   -0.335554 
Co   -0.828205   0.014711    -0.020103 
C    -2.015509   -1.398247   0.955866  
C    -1.883915   -0.268263   1.80989   
C    -2.379274   0.869562    1.102627  
C    -2.95518    0.399526    -0.129665 
C    -2.73378    -0.984203   -0.226141 
C    -1.566867   -2.793046   1.273149  
C    -1.344959   -0.303259   3.20557   
C    -2.439688   2.286938    1.591054  
C    -3.624754   1.260735    -1.154421 
C    -3.211299   -1.879919   -1.328204 
H    -0.488474   -0.976313   3.295063  
H    -1.028679   0.683416    3.547897  
H    -2.130768   -0.660013   3.880321  
H    -1.843245   2.424572    2.495476  
H    -2.070073   2.988513    0.835293  
H    -3.469619   2.571888    1.828973  
H    -3.366936   2.313062    -1.013899 
H    -3.341371   0.973924    -2.170982 
H    -4.71281    1.169405    -1.06883  
H    1.778734    2.079471    -0.818788 
H    3.368447    1.029171    0.219391  
O    3.168157    1.29534     -0.693086 
H    4.143358    -0.007945   3.038496  
H    -0.670344   -2.78523    1.900285  
H    0.497658    2.068588    2.120637  
H    -3.192963   -1.376574   -2.299754 
C    0.06357     -2.143996   -2.087884 
H    3.598695    -1.74461    1.346625  
H    -2.614677   -2.792741   -1.397364 
H    -4.24666    -2.182365   -1.137552 
C    1.036052    -3.072523   -2.276353 
O    -0.563481   1.452264    -1.330443 
C    0.001186    2.531907    -1.544153 
H    2.616751    1.9195      3.363751  
C    -0.697158   3.631077    -2.289538 
H    -0.875696   4.462766    -1.600737 
H    -0.053751   4.003486    -3.089126 
H    -1.643108   3.273311    -2.691941 
S    2.236106    -2.941348   -1.041855 
H    1.119662    -3.807822   -3.06311  
H    -0.798228   -1.987933   -2.722497 
H    -1.331766   -3.353168   0.363025  
H    -2.347513   -3.340536   1.811494  
C    4.215371    2.132653    -1.188079 
H    5.160139    1.584148    -1.221093 
H    3.934039    2.420926    -2.200912 
H    4.329639    3.033601    -0.577471 
