61                                     
                                       
C    2.05067     3.454212    -1.237253 
C    0.699697    3.495763    -0.924853 
C    0.045932    2.313499    -0.582557 
C    0.662414    1.068452    -0.5248   
C    2.025226    1.066738    -0.865476 
C    2.715406    2.228858    -1.213978 
O    2.465686    -1.4067     0.788606  
H    0.136792    4.422944    -0.948535 
O    -1.332426   2.483095    -0.371816 
Co   -0.430812   -0.492547   -0.137735 
C    -0.44181    -2.52106    -0.857848 
C    -1.772911   -2.101716   -0.581666 
C    -2.054703   -0.978378   -1.425739 
C    -0.893101   -0.684609   -2.185159 
C    0.12398     -1.640583   -1.81922  
C    1.468222    -1.786051   -2.464321 
C    -0.762674   0.381592    -3.229671 
C    -3.353741   -0.232157   -1.477121 
C    -2.739831   -2.789191   0.335246  
C    0.257745    -3.669178   -0.198212 
H    -3.515205   -2.105681   0.692178  
H    -3.242407   -3.610799   -0.18628  
H    -3.845206   -0.207542   -0.49925  
H    -3.210856   0.798911    -1.811257 
H    -4.037659   -0.719439   -2.179888 
H    -1.392444   1.245       -2.9997   
H    0.267032    0.738034    -3.308546 
H    -1.068205   -0.011596   -4.205093 
H    -1.898211   -0.936947   2.309619  
H    3.394355    -1.083033   0.973995  
H    4.010561    0.953812    0.71291   
O    4.445219    0.203954    1.154774  
C    -2.254026   0.049448    2.033219  
C    -3.294246   0.659931    2.698967  
C    -3.692625   1.93642     2.281276  
H    1.464145    -0.694632   3.861625  
N    -1.611515   0.628574    0.994506  
C    -3.017347   2.551584    1.247419  
C    2.232713    -1.013951   3.160779  
H    2.632422    -1.987397   3.4606    
H    3.063292    -0.301796   3.151072  
O    0.4544      -0.979838   1.566548  
C    1.659118    -1.121736   1.781454  
H    -4.511672   2.447336    2.776678  
H    -3.2572     3.547717    0.896706  
H    -3.78434    0.153416    3.521327  
H    1.342106    -3.580727   -0.288934 
H    1.426665    -2.550591   -3.247499 
H    1.789518    -0.850799   -2.92769  
C    -1.963132   1.862437    0.634695  
H    2.230356    -2.086567   -1.739911 
H    -0.046539   -4.609635   -0.67001  
H    0.004941    -3.736945   0.864132  
H    -2.235646   -3.21641    1.20776   
H    2.556558    0.121604    -0.907305 
H    2.572875    4.364283    -1.512568 
H    3.761524    2.17308     -1.507282 
C    5.860552    0.29053     0.972601  
H    6.247281    1.21433     1.409632  
H    6.297964    -0.56011    1.494264  
H    6.12754     0.239713    -0.087006 
