62                                     
                                       
C    -1.686053   3.47687     0.77571   
C    -0.359836   3.464564    0.365335  
C    0.276286    2.240803    0.133679  
C    -0.361939   1.002228    0.364464  
C    -1.699889   1.046389    0.739409  
C    -2.367441   2.266264    0.915737  
O    -1.898285   -1.374782   -0.977508 
H    0.156912    4.405584    0.20408   
C    1.620187    2.134861    -0.464109 
Co   0.794224    -0.526673   0.028296  
C    1.134261    -0.913556   2.063623  
C    0.107716    -1.80616    1.583128  
C    0.682198    -2.607949   0.568994  
C    2.048851    -2.22455    0.396627  
C    2.332221    -1.209741   1.358609  
C    0.995137    0.072537    3.183648  
C    -1.264812   -1.958242   2.162185  
C    0.007742    -3.686597   -0.220188 
C    2.998969    -2.894785   -0.553006 
C    3.649432    -0.533653   1.594042  
H    -1.564497   -1.067058   2.718101  
H    -2.010503   -2.148274   1.38577   
H    -1.280887   -2.8023     2.860062  
H    -1.068096   -3.701621   -0.041974 
H    0.178524    -3.561319   -1.2947   
H    0.418346    -4.661437   0.064833  
H    2.620202    -2.885619   -1.581103 
H    3.983176    -2.419846   -0.546627 
H    3.146548    -3.942289   -0.269623 
H    -2.904899   -1.165227   -1.092446 
H    -4.278681   0.135778    -0.331464 
O    -4.247243   -0.528144   -1.057826 
H    -0.009952   0.500283    3.215972  
H    1.192219    -0.41198    4.145928  
H    3.34424     -0.436292   -1.573896 
H    4.894844    1.375332    -2.319759 
H    4.289783    3.752826    -1.784382 
H    4.356602    -0.722712   0.783367  
C    3.127508    0.608738    -1.374998 
C    3.983835    1.619005    -1.78655  
C    3.639179    2.935396    -1.49121  
O    0.059663    -0.7829     -1.780691 
C    -1.153968   -0.964165   -1.960367 
H    -2.202187   4.418612    0.94198   
H    -2.263984   0.132761    0.901237  
C    -1.786933   -0.750461   -3.301702 
H    -2.073181   -1.721106   -3.718587 
H    -2.699211   -0.158536   -3.182683 
H    -1.090083   -0.253702   -3.973777 
N    1.991451    0.859703    -0.716996 
H    3.538128    0.550237    1.696908  
H    4.097069    -0.910292   2.519583  
H    1.702393    0.89939     3.074495  
C    2.445061    3.197333    -0.832903 
H    2.149649    4.216881    -0.615769 
C    -3.816634   2.273354    1.191773  
O    -4.553634   1.330095    0.963742  
H    -4.237783   3.204486    1.610942  
C    -5.449468   -1.300703   -1.019965 
H    -6.31575    -0.644095   -1.124948 
H    -5.418719   -1.991038   -1.86321  
H    -5.528106   -1.866038   -0.086842 
