67                                     
                                       
C    1.599837    3.425515    -0.077151 
C    0.264387    3.430178    0.288675  
C    -0.460194   2.234859    0.284812  
C    0.129631    1.022214    -0.12134  
C    1.47965     1.03064     -0.46526  
C    2.216013    2.221185    -0.431187 
O    1.395621    -1.64566    0.997994  
H    -0.194984   4.366689    0.590845  
C    -1.84126    2.122104    0.77104   
Co   -1.131453   -0.457826   -0.13696  
C    -1.271523   -0.500388   -2.236634 
C    -0.36739    -1.538982   -1.808815 
C    -1.103839   -2.435341   -0.998389 
C    -2.45065    -1.970872   -0.900939 
C    -2.555438   -0.795249   -1.704014 
C    -0.945516   0.630371    -3.164559 
C    1.04398     -1.730942   -2.273498 
C    -0.587904   -3.673028   -0.332288 
C    -3.543878   -2.699155   -0.174076 
C    -3.788144   0.023616    -1.944958 
H    1.438144    -0.822729   -2.734117 
H    1.70722     -2.012576   -1.451034 
H    1.08054     -2.525739   -3.026341 
H    0.5007      -3.728805   -0.380629 
H    -0.891248   -3.715975   0.719386  
H    -1.000397   -4.559143   -0.827184 
H    -3.286347   -2.878654   0.875858  
H    -4.488119   -2.149903   -0.205302 
H    -3.725408   -3.675407   -0.636072 
H    2.371006    -1.724031   1.340767  
H    4.043601    -0.799259   1.216715  
O    3.783427    -1.582141   1.751328  
H    0.08607     0.966394    -3.034703 
H    -1.078953   0.320311    -4.2066   
H    -3.824296   -0.463835   1.219647  
H    -5.311626   1.288773    2.196123  
H    -4.500388   3.666479    2.199767  
H    -4.585385   -0.22188    -1.239736 
C    -3.522892   0.578585    1.249106  
C    -4.34287    1.554871    1.791063  
C    -3.883681   2.870981    1.7941    
O    -0.622667   -1.07183    1.654144  
C    0.530848    -1.426743   1.939406  
H    2.17415     4.347634    -0.061338 
H    1.984859    0.118715    -0.750876 
C    0.935073    -1.656243   3.365898  
H    0.949275    -2.734901   3.554259  
H    1.944216    -1.275479   3.540468  
H    0.219342    -1.184887   4.036808  
N    -2.318632   0.857672    0.738183  
H    -3.585387   1.095645    -1.860042 
H    -4.167674   -0.164341   -2.954669 
H    -1.596284   1.490458    -2.984367 
C    -2.624258   3.156625    1.289052  
H    -2.242474   4.17056     1.303464  
N    3.586121    2.270949    -0.784198 
H    3.928806    3.175562    -1.07986  
C    4.514084    1.286841    -0.646184 
O    4.24851     0.166666    -0.216077 
C    4.638157    -2.663081   1.370534  
H    5.658503    -2.468564   1.708361  
H    4.265836    -3.562251   1.862125  
H    4.631114    -2.804272   0.285701  
C    5.919707    1.646101    -1.065708 
H    6.246739    0.928034    -1.821138 
H    6.01589     2.656586    -1.46635  
H    6.579071    1.537501    -0.201119 
