59                                     
                                       
C    -3.312716   0.127951    2.468982  
C    -2.892898   1.134287    1.603182  
C    -1.707995   0.96301     0.87978   
C    -0.889848   -0.175682   1.036332  
C    -1.355017   -1.181145   1.884783  
C    -2.554725   -1.040139   2.588118  
O    -1.43241    -2.634128   -1.257631 
N    -0.184226   1.432713    -0.854171 
C    -1.30055    1.851873    -0.214158 
Co   0.762515    -0.050321   0.029058  
C    1.920915    0.918465    1.453005  
C    1.943092    -0.485083   1.75968   
C    2.46329     -1.158238   0.634106  
C    2.886927    -0.168958   -0.332916 
C    2.600833    1.101491    0.201332  
C    1.443892    2.010666    2.361914  
C    1.561127    -1.093386   3.070907  
C    2.621148    -2.638395   0.461454  
C    3.523004    -0.496253   -1.649371 
C    2.913794    2.437862    -0.397601 
H    0.6987      -0.597493   3.521045  
H    1.339063    -2.159283   2.979777  
H    2.406327    -0.992463   3.760919  
H    1.836512    -3.194035   0.983792  
H    2.586513    -2.911209   -0.597024 
H    3.585816    -2.972718   0.857598  
H    2.881637    -1.160726   -2.237705 
H    3.711609    0.401771    -2.241728 
H    4.482269    -1.001281   -1.497966 
H    -1.958865   -1.850548   -0.885145 
H    -3.474081   -0.698138   0.154243  
O    -3.270677   -0.94361    -0.763434 
C    -1.463429   3.582222    -1.834535 
H    2.25813     2.374533    2.997668  
C    -1.968712   2.97731     -0.692003 
H    -1.941416   4.462925    -2.255093 
H    -2.858195   3.358608    -0.205917 
H    3.173757    2.370723    -1.456104 
C    0.201279    2.067146    -1.965423 
H    0.637601    1.658505    3.010731  
H    1.077532    1.668136    -2.470577 
O    0.392011    -1.329417   -1.429988 
C    -0.232264   -2.371372   -1.671107 
H    -4.229892   0.24521     3.036546  
H    -0.784023   -2.098455   2.011174  
C    0.377553    -3.468822   -2.492144 
H    0.514971    -4.347395   -1.854135 
H    -0.305317   -3.752646   -3.295537 
H    1.336484    -3.152715   -2.899482 
H    -3.500658   2.02634     1.4796    
H    2.082263    3.141105    -0.291855 
H    3.77255     2.872347    0.125442  
H    1.062335    2.863612    1.79195   
C    -4.379551   -1.647323   -1.328197 
H    -5.261442   -1.002958   -1.367169 
H    -4.092596   -1.92177    -2.343273 
H    -4.607188   -2.555351   -0.761576 
H    -2.896672   -1.838875   3.239592  
N    -0.39119    3.123746    -2.491924 
