66                                     
                                       
C    2.582259    3.200399    -1.46778  
C    1.213927    3.230323    -1.232986 
C    0.552464    2.062826    -0.835964 
C    1.227428    0.837135    -0.673957 
C    2.605266    0.841875    -0.906049 
C    3.278661    2.004464    -1.297343 
O    2.566842    -1.003647   1.416931  
H    0.676662    4.167554    -1.342284 
C    -0.86751    2.041441    -0.449402 
Co   0.001606    -0.618475   -0.239646 
C    -0.326111   -1.164469   -2.221194 
C    0.826745    -1.890777   -1.750904 
C    0.414835    -2.68127    -0.65919  
C    -1.008763   -2.52887    -0.494628 
C    -1.462174   -1.635753   -1.491642 
C    -0.360718   -0.216291   -3.381869 
C    2.177434    -1.900704   -2.392658 
C    1.259897    -3.599708   0.169157  
C    -1.824618   -3.337179   0.470191  
C    -2.872164   -1.208635   -1.763216 
H    2.404441    -0.953225   -2.884872 
H    2.970487    -2.114808   -1.671388 
H    2.201063    -2.689233   -3.153131 
H    2.323422    -3.38558    0.054204  
H    1.011618    -3.516079   1.231934  
H    1.084433    -4.639415   -0.128538 
H    -1.423132   -3.283117   1.488277  
H    -2.865835   -3.008824   0.497112  
H    -1.814628   -4.391488   0.173328  
H    3.414036    -0.559747   1.713029  
H    4.021358    1.352504    1.084176  
O    4.356442    0.800747    1.812588  
H    0.598429    0.293644    -3.504123 
H    -0.588876   -0.746845   -4.312519 
H    -3.749302   3.833       -0.248332 
H    -1.432111   4.03178     -1.103211 
H    -3.544844   -1.456624   -0.939926 
C    -2.487816   0.805999    0.705124  
C    -3.434852   1.855237    0.577864  
C    -3.037304   3.022015    -0.121314 
C    -1.76093    3.132023    -0.598252 
O    0.409415    -0.68775    1.692847  
C    1.550871    -0.639389   2.158043  
H    3.102257    4.100508    -1.777999 
H    3.177681    -0.07432    -0.795173 
H    4.348399    1.970056    -1.492651 
C    1.811209    -0.202162   3.566925  
H    2.219755    -1.042855   4.135582  
H    2.562532    0.593449    3.563297  
H    0.888224    0.145367    4.026552  
N    -1.253811   0.899205    0.117455  
H    -2.939744   -0.130622   -1.94158  
H    -3.235025   -1.713485   -2.665067 
H    -1.126435   0.553238    -3.241318 
C    -2.819752   -0.335617   1.471584  
C    -4.065393   -0.442091   2.039465  
H    -4.309258   -1.315089   2.636981  
C    -4.718361   1.707633    1.159818  
C    -5.032894   0.576671    1.869022  
H    -6.013917   0.46767     2.318323  
H    -2.064427   -1.094772   1.630158  
H    -5.439752   2.511008    1.042349  
C    5.777161    0.927483    1.896458  
H    6.05746     1.96163     2.11124   
H    6.102714    0.292933    2.720153  
H    6.261242    0.59574     0.972925  
