59                                     
                                       
C    -2.770556   2.454771    1.698581  
C    -1.697521   2.94184     0.962928  
C    -0.714424   2.040809    0.551026  
C    -0.741747   0.658785    0.818724  
C    -1.842181   0.205783    1.552625  
C    -2.833701   1.090194    1.996013  
O    -1.851503   -1.531491   -0.946991 
H    -1.616431   3.995385    0.712028  
C    0.448255    2.420357    -0.239859 
Co   0.775289    -0.298273   -0.007524 
C    1.428949    -2.32916    -0.138032 
C    2.537499    -1.441381   -0.275398 
C    2.636329    -0.692934   0.940686  
C    1.559198    -1.06471    1.785882  
C    0.806544    -2.093821   1.113781  
C    0.969262    -3.30907    -1.172132 
C    3.451707    -1.379484   -1.46348  
C    3.666582    0.341346    1.284147  
C    1.312879    -0.539153   3.166956  
C    -0.322682   -2.893416   1.690339  
H    0.012874    -3.914894   1.898097  
H    -0.078923   -3.579197   -1.024091 
H    1.086436    -2.909383   -2.18356  
H    1.566784    -4.224925   -1.107883 
H    2.887877    -1.407019   -2.401103 
H    4.052057    -0.466541   -1.463925 
H    4.143411    -2.228292   -1.467449 
H    4.374393    0.489519    0.465842  
H    3.208094    1.306367    1.523223  
H    -2.851156   -1.435273   -0.931223 
H    -3.903283   0.074781    0.046296  
O    -4.204205   -0.567166   -0.621281 
H    1.775993    4.067053    -2.388148 
H    4.240211    0.020104    2.159208  
C    2.297489    2.113814    -1.45369  
C    1.922936    3.613681    -1.408826 
C    -2.126822   -0.468866   -3.098661 
H    -2.343189   -1.394844   -3.639924 
H    -3.546052   3.127833    2.04826   
H    -1.945088   -0.850235   1.789623  
H    -3.660341   0.712428    2.59445   
O    -0.151672   -0.393538   -1.754217 
C    -1.313725   -0.789882   -1.882571 
H    -3.082184   -0.033918   -2.78966  
H    -1.582988   0.218889    -3.742935 
N    1.320172    1.519531    -0.542395 
H    1.697397    0.478341    3.275871  
H    0.246838    -0.517014   3.405143  
H    1.816347    -1.170469   3.90721   
H    2.185653    1.674846    -2.45086  
H    -0.66798    -2.466194   2.634398  
H    -1.170926   -2.95087    1.002666  
O    0.648958    3.640942    -0.713631 
H    3.318091    1.933582    -1.107743 
H    2.625903    4.210641    -0.824995 
C    -5.504653   -1.046497   -0.271197 
H    -6.224405   -0.224428   -0.261547 
H    -5.79439    -1.763544   -1.038618 
H    -5.495333   -1.544081   0.703192  
