61                                     
                                       
C    -3.550321   -1.627981   0.639986  
C    -2.834023   -0.88035    1.571868  
C    -1.570522   -0.428743   1.213133  
C    -0.96579    -0.717135   -0.014846 
C    -1.730834   -1.438337   -0.928765 
C    -3.022071   -1.902476   -0.627785 
O    -1.043879   2.871678    -1.107474 
N    0.324553    0.924352    1.486664  
N    -0.817843   0.461499    2.030826  
Co   0.863343    -0.091478   -0.119384 
C    2.016937    -1.476715   0.915332  
C    1.502257    -2.123747   -0.244685 
C    1.933002    -1.379937   -1.380796 
C    2.849606    -0.367037   -0.919732 
C    2.907516    -0.424923   0.482359  
C    1.754729    -1.877832   2.336042  
C    0.675969    -3.37104    -0.238697 
C    1.619965    -1.646903   -2.822808 
C    3.564664    0.592811    -1.816566 
C    3.758584    0.419854    1.380916  
H    -0.047154   -3.377991   0.58055   
H    0.124942    -3.501868   -1.171619 
H    1.340181    -4.233444   -0.115106 
H    0.819917    -2.382788   -2.929856 
H    1.30775     -0.731265   -3.335021 
H    2.500263    -2.037304   -3.343923 
H    2.923393    0.900055    -2.646637 
H    3.885237    1.488737    -1.278882 
H    4.456936    0.117881    -2.238561 
H    -1.647285   2.153256    -0.721835 
H    -3.173682   0.580545    -0.504115 
O    -3.072936   1.535992    -0.360857 
H    -1.320904   -1.661913   -1.913583 
H    0.772396    -2.348373   2.436251  
C    0.804322    3.546307    -2.382141 
H    3.886847    1.434323    0.992029  
C    0.822507    1.812327    2.3451    
H    -3.276802   -0.635991   2.532361  
H    3.337946    0.485344    2.387217  
H    4.755635    -0.023685   1.472878  
H    -4.542138   -1.988621   0.896602  
O    0.617943    1.381585    -1.401552 
C    0.108182    2.496438    -1.567171 
H    0.327523    3.597435    -3.365842 
H    0.685704    4.522213    -1.908348 
H    1.857188    3.296817    -2.503053 
H    0.113965    2.564939    4.322515  
H    1.748394    2.32337     2.12273   
C    -0.014461   1.926686    3.462793  
C    -1.054584   1.0478      3.219859  
H    -1.935532   0.812465    3.797393  
H    1.777998    -1.01149    3.004624  
H    2.506592    -2.592515   2.686524  
C    -4.10275    2.240077    -1.0556   
H    -5.085122   1.957117    -0.668761 
H    -3.93759    3.301533    -0.870284 
H    -4.061329   2.052618    -2.133245 
C    -3.800657   -2.717735   -1.628188 
H    -3.552099   -2.432319   -2.653659 
H    -3.57062    -3.78302    -1.517616 
H    -4.878148   -2.599598   -1.489388 
