63                                     
                                       
C    -2.643651   2.496086    1.487664  
C    -1.489538   2.955718    0.851686  
C    -0.544168   1.993821    0.418541  
C    -0.751858   0.611458    0.633691  
C    -1.929226   0.206014    1.263706  
C    -2.871928   1.140022    1.693031  
O    -1.902276   -1.78514    -0.965338 
C    -1.35357    4.450113    0.683004  
C    0.698463    2.285877    -0.337769 
Co   0.68999     -0.534637   0.015349  
C    0.521727    -2.14569    1.406278  
C    1.190399    -2.616142   0.251262  
C    2.384672    -1.856951   0.066013  
C    2.467181    -0.923189   1.142751  
C    1.308699    -1.071002   1.954939  
C    -0.679      -2.787499   2.032623  
C    0.731963    -3.720232   -0.649962 
C    3.398112    -2.126989   -1.008674 
C    3.562609    0.069825    1.391943  
C    1.022324    -0.318688   3.218809  
H    -1.469454   -2.972521   1.29916   
H    -0.395024   -3.751762   2.467481  
H    -0.333221   -3.923764   -0.521862 
H    0.915193    -3.478344   -1.701457 
H    1.283136    -4.639606   -0.422981 
H    2.954199    -2.0941     -2.010135 
H    4.224729    -1.412912   -0.976801 
H    3.831494    -3.124144   -0.878806 
H    4.205879    0.195702    0.518057  
H    -2.894013   -1.645623   -1.026268 
H    -3.890678   0.023681    -0.275396 
O    -4.209437   -0.667821   -0.882651 
H    1.455969    -0.84108    4.078364  
H    2.923363    0.278095    -1.715879 
H    3.871932    2.434483    -2.542142 
H    2.717308    4.561825    -1.852901 
H    3.163168    1.053403    1.657483  
C    2.466499    1.227383    -1.457246 
C    2.988478    2.425937    -1.9154   
C    2.341101    3.594806    -1.534979 
H    -3.373492   3.222192    1.833131  
O    -0.10581    -0.808374   -1.771752 
C    -1.272988   -1.171926   -1.937298 
C    1.194353    3.527389    -0.753728 
H    -2.123922   -0.848672   1.428563  
C    -1.9909     -0.958716   -3.233969 
H    -2.214426   -1.930279   -3.684761 
H    -2.942922   -0.455294   -3.039689 
H    -1.37576    -0.367674   -3.909365 
N    1.380202    1.164055    -0.682251 
H    4.191349    -0.269196   2.221732  
H    1.449697    0.687153    3.187272  
H    -0.052145   -0.213815   3.386766  
H    -3.772747   0.815459    2.210028  
H    -1.087507   -2.173446   2.83774   
H    -0.452658   4.838095    1.16859   
H    -1.329874   4.744595    -0.371324 
H    -2.208282   4.952408    1.140045  
H    0.696197    4.442351    -0.480969 
C    -5.553546   -1.017251   -0.546166 
H    -6.212871   -0.153189   -0.659317 
H    -5.862765   -1.793842   -1.245004 
H    -5.620057   -1.403723   0.475408  
